47
CSD_code = KEVLUT | q = 0 | S = 0 | Stoichiometry = C21H19IrN2O4 | MND = 4
C         6.56104279090093    5.69463172266720    7.93176623438050
C         5.92958498282742    6.75788013761708    8.52192655317495
C         5.01491526197981    6.19706892939616    9.46302990689008
C         4.09163605907449    6.73947903040380   10.35534751173798
C         3.29469151069439    5.87213765078464   11.11014188815098
H         2.58384929883955    6.28385097347123   11.80612486581851
C         3.38780944134398    4.49714880393179   10.96752649185366
C         4.32240357173203    3.90972980462847   10.07705420568925
C         5.16689682929679    4.78869755540978    9.35777690059960
C         7.55085154335960    5.75944636230427    6.81704573011767
H         7.32403183522793    6.60552274286993    6.17138421215706
H         7.51010001749392    4.84919194688626    6.22022541256846
H         8.56613578678493    5.88560160478591    7.19289724229974
C         6.12367035014985    8.21273848706135    8.26940060446372
H         6.51561303694115    8.69933894011781    9.16205749017502
H         5.17161355792399    8.68479660554503    8.03064392478389
H         6.81891001388897    8.37896173830998    7.45090039020530
C         3.11882112743614    8.68651019142363   11.32938715524021
H         2.08178581030757    8.43226651856277   11.08598724868950
H         3.25914674935991    9.76050147122366   11.21557538842595
H         3.32989281334076    8.40502078873096   12.36632129570041
C         1.62816141432061    4.10720321699601   12.53708487678186
H         2.07096838987431    4.67724384959337   13.36022148275426
H         1.12913846096928    3.22707328364657   12.94040176759169
H         0.89449099290449    4.72902297275425   12.01401542286431
C         4.30923892003027    2.52370474977340    9.84358438960202
H         3.49455867648286    1.96593703189834   10.30211030730337
C         4.89962707542980    0.51795557255421    8.87419802490804
C         4.63974408796556   -0.33673922034673    9.94282667133573
H         4.64505199735786    0.05127106190468   10.95143289465221
C         4.42497987430321   -1.68376706189359    9.71748137031627
H         4.24141678062336   -2.34115802912818   10.55452898040550
C         4.45119169137574   -2.19140385776906    8.42964739493384
H         4.28340113276275   -3.24394979013001    8.25904120442229
C         4.70148512753325   -1.34443713869009    7.36222063719155
H         4.72367231401162   -1.73427726244644    6.35557592870660
C         4.92688746426855    0.00089008595618    7.57938957427661
H         5.11764326121044    0.67092442370072    6.75122462786455
C         8.60560167611707    3.18449774930477    7.77818176289737
C         7.60928780636929    0.89995293185936    8.25956702119092
N         6.12523158289253    4.48549276335979    8.45425040173531
N         5.14600521793953    1.89327110594433    9.06670890945976
O         4.02374232164068    8.08953643165586   10.43477254119945
O         2.61066471186947    3.61549097162788   11.66010299375672
O         9.70719075669242    3.37931968920967    7.50627112128310
O         8.10336876416867   -0.13859164508426    8.22835707240685
Ir        6.91494711195194    2.63241410750320    8.32408196707571

