63
CSD_code = KEVNOP | q = 0 | S = 0 | Stoichiometry = C19H36Cl2N2OPtSi2 | MND = 5
Pt       10.71695298190602   -7.22520188879192   -0.16939788705359
Si       11.75640401544453   -4.93062361930039   -2.47573978922112
Cl        6.65779034276144   -9.63194297845025    3.29922765955824
C         8.96015509514224   -8.27028490398121    0.50005630049973
O        12.85466181802748   -6.08739524109132   -2.86415984332292
N         8.68479647523598   -8.68346340552542    1.75984727981191
Si       12.98109253682041   -7.65959572587125   -2.41646876176609
N         7.80182006119155   -8.39661119955069   -0.18804840598254
C         7.36769873141481   -9.05536204371701    1.86063161564875
Cl        5.21230504592044   -9.16101198434263    0.10977329784833
C         6.81160319458694   -8.88106748677775    0.62862347816393
C         9.71067454244591   -5.39953775861723   -0.45282919645238
H         9.01020709038494   -5.37738927754946   -1.28497976767497
H         9.29092013609118   -4.97163676360593    0.45563412068381
C        11.08604963177202   -5.20256690168512   -0.72889706943101
H        11.66375238685730   -4.73540337798815    0.07280865911760
C        12.06063116899458   -8.85312783827734    0.04092474907679
H        12.32184031869785   -9.14241281180174    1.05880148889879
H        11.77308560153034   -9.69866263403129   -0.57865511991770
C        12.74987926932327   -7.77456196224365   -0.54656931705154
H        13.43694209315812   -7.21955432088732    0.09205907813713
C         9.64747696935324   -8.77322303792035    2.82985323324909
H        10.62959910629899   -8.81681116635290    2.35354237333992
H         9.46370528402208   -9.69833964295430    3.38266155715906
C         9.60658590061003   -7.57339513070176    3.77610184014788
H         8.64909236407535   -7.54070556791411    4.29965754053077
H        10.39071790450637   -7.71670313733006    4.52180576358370
C         9.83895053576692   -6.26334724879859    3.02822896212787
H         8.92944508017039   -5.99782425105027    2.48688335454086
H        10.63980939999379   -6.40953156201553    2.28621222810547
C        10.21436861107958   -5.12559367693181    3.96751305482678
H         9.43358457624408   -4.96706403430908    4.70910319386614
H        10.34975587703318   -4.20243339584586    3.40979442918225
H        11.14194928281807   -5.34898102441496    4.48988834567200
C         7.66639777718777   -8.16075065295840   -1.60277915838581
H         8.49194896833004   -7.50057777799785   -1.88787258181117
H         6.71399449439089   -7.65868621779716   -1.79118254567712
C         7.75025201950191   -9.46385345834718   -2.39880013558983
H         6.93230834209013  -10.12599757808628   -2.10765666017520
H         8.69122835400562   -9.96120422834256   -2.15500165716867
C         7.68504441432230   -9.19859072892428   -3.90038933819485
H         8.48384261058302   -8.50911856564499   -4.17933878524973
H         6.73270822931648   -8.72195934875166   -4.14302403425854
C         7.82992352707613  -10.48623712608177   -4.70102875041840
H         8.78882523662318  -10.95503401407841   -4.49346665481785
H         7.77191581372150  -10.28097489933424   -5.76690729901690
H         7.04069674213426  -11.18907966139831   -4.44331461040864
C        10.36537235212003   -4.99070513062947   -3.77985416806658
H        10.77936455811333   -4.88003114704331   -4.77721221507981
H         9.64754342981078   -4.19102583190894   -3.63012436130968
H         9.82760811446444   -5.93332611210888   -3.75284793378961
C        12.70947107211475   -3.29013878001973   -2.57789020195109
H        13.50668143250527   -3.24610469315685   -1.84379365136227
H        12.05057684420049   -2.44626498742475   -2.40636856558021
H        13.15826899431003   -3.16902826502482   -3.55744425513964
C        14.69649519269953   -8.21513647805781   -3.00747402796689
H        14.78404848873045   -8.10475942987637   -4.08221018740808
H        14.87352147933142   -9.25588509118962   -2.76132224828180
H        15.48182149740738   -7.62415349268767   -2.55007446574014
C        11.56403789585312   -8.63696663084885   -3.24208445380058
H        10.63984968412003   -8.46290904549502   -2.69067795317257
H        11.75212043153466   -9.70565457118289   -3.24792060853478
H        11.40982857371127   -8.32067905498655   -4.26902693755336

