72
CSD_code = KEVSOU | q = 1 | S = 0 | Stoichiometry = C36H32N3Pd(1+) | MND = 5
Pd       25.53601038674432    2.58818906909651    2.77370573694268
N        24.63159364099931    2.81120616675323    0.84996369741951
C        23.29673850448721    3.34217160951959    0.63532495116706
H        22.58167957549759    2.52113084598466    0.51417403668205
C        23.41864049448158    4.17650095690615   -0.67493060207344
H        23.05733897246129    5.20179002342516   -0.52794477733346
N        24.86521916702191    4.19702919600195   -0.87832409941030
C        25.44629108260937    3.38523973285643    0.01829460152245
C        26.89258355782286    3.19757619564670    0.20321110750667
N        27.25783569325700    3.12629564624045    1.49588388393901
C        28.55067807831264    3.04295758026997    1.78742040145665
H        28.81318209973378    3.03172814600831    2.83770033728626
C        29.53623470251462    2.98763754360047    0.81254460061094
H        30.57322647637359    2.92743966591617    1.09960651914075
C        29.15975258364976    2.99510340218741   -0.52048317609322
H        29.89679278598810    2.91859239569816   -1.30459181799186
C        27.81377505988371    3.11212003230865   -0.83286715449783
H        27.48314204106493    3.10970777190383   -1.85874151689610
C        26.31401052988761    2.31701269985159    4.71119243287455
H        26.17842321258427    3.26673180335976    5.23873417396943
C        25.19290808621905    1.48140046299029    4.50489366296782
H        25.31770589176348    0.40290809362456    4.41580906682073
C        23.97833813287810    2.08648993853505    4.13334440139305
H        23.70142129427908    3.03242581439495    4.60854997946069
C        22.88347482372612    1.29640235538406    3.56973282957868
C        21.56542925847110    1.48441426871491    3.98295400279045
H        21.34843254167571    2.21108518949437    4.75190235676829
C        20.54630055039716    0.73345010547918    3.42693937783217
H        19.53020049010971    0.87853720959186    3.76062435688097
C        20.82491943716529   -0.20058154753706    2.44240779857610
H        20.02654146726752   -0.78062619498943    2.00591828595290
C        22.13074506262852   -0.38525149642972    2.01251474986301
H        22.34570568713840   -1.10560014694789    1.23749354443320
C        23.15409726309722    0.35384466327575    2.57229990605657
H        24.17871542020006    0.23469912676786    2.21216571147170
C        22.90589493876331    4.17888611704020    1.83530473005404
C        21.58825400755353    4.19080999129376    2.27306622709086
H        20.84994941055951    3.60183989372401    1.74950693467970
C        21.22061428409160    4.95000859051374    3.37053739504569
H        20.19231000261857    4.95517375273182    3.69773031794707
C        22.16828590244533    5.69936124548062    4.04800400584854
H        21.88173856703417    6.28722846275721    4.90643661739243
C        23.48348009835136    5.70443978353765    3.61279004366463
H        24.21961247073210    6.30749180820125    4.12432370311952
C        23.85942144762829    4.94946711386907    2.50949214955687
H        24.88759016645286    5.03423611647961    2.14183911994587
C        22.70856606484124    3.54202145728263   -1.84298362942154
C        21.67929769104889    4.20635909149319   -2.49445288595380
H        21.37945140953972    5.18923492067480   -2.16051646355390
C        21.03421124258941    3.61199298780402   -3.56544288564399
H        20.23393701970805    4.13480418797185   -4.06596125878342
C        21.41724991216080    2.35303375118847   -3.99520890203837
H        20.91743385989274    1.89216949309123   -4.83299588123329
C        22.44389684294631    1.68500477816655   -3.34810733361522
H        22.74451011127387    0.70270051398785   -3.67955774070074
C        23.08589016307382    2.27532244569975   -2.27508895836994
H        23.88412645033038    1.75106230342557   -1.76744945840108
C        25.45598619050985    5.00026760076119   -1.90876871004799
H        26.47617131782042    5.27103131453270   -1.64042163118865
H        24.86954725698357    5.91286761796897   -2.01910038741746
H        25.45735867644536    4.47954137426804   -2.87090598613165
C        27.65119793141314    1.71906306158598    4.74805597321065
C        28.62501279106780    2.14772170798665    5.64997889810573
H        28.38973054072459    2.93228265269679    6.35445494678470
C        29.87781577728596    1.56098228817648    5.65797680972600
H        30.62000099444175    1.89379564842484    6.36723697149196
C        30.18180921307562    0.55006596688491    4.76063562972683
H        31.15962343100571    0.09426912195542    4.77101694122747
C        29.23046238965749    0.13013585467294    3.84225797049132
H        29.47157488475893   -0.64804566604205    3.13363735029443
C        27.97607956632650    0.70761551527526    3.83194159105156
H        27.24152292159292    0.39979880902284    3.08221441961334

