87
CSD_code = KEVTOX | q = 0 | S = 0 | Stoichiometry = C44H36Cl2N4Pd | MND = 4
Pd        2.94405081236071    5.10981997869670   -0.00004950891669
Cl        4.26051610225125    6.75890259724834    0.91615186449975
N         1.31371105408755    5.20943893099232    2.45111751433502
N         2.27282509287082    4.58001083148359    1.78035113402709
C         0.35661387509744    5.31300405325722    5.83043931048936
H         1.39033004647383    5.20859057036021    6.12428712428893
C         0.85907618687058    7.47781148365170    3.17103932671171
C         2.07159212989752    7.71964119495666    3.80508750029331
H         2.97091076271281    7.25246702632432    3.42983672699091
C        -1.34942662680982    5.12618882127635    4.14857070419357
H        -1.64758766349343    4.85529797790159    3.14596596477753
C        -0.58486250416751    5.77707061997540    6.72970502816322
H        -0.28573112747401    6.03234607506635    7.73525494715521
C         4.75106264583282    2.97229869221567    1.36616541390709
H         4.97282691987451    4.04092953193135    1.33991625919493
C         0.81263035234017    6.49783966385325    2.02919606331847
H        -0.20895597407480    6.39088632587532    1.64827656752592
H         1.47205204202057    6.84024597342209    1.20957641497161
C        -2.28881544655299    5.58174548958840    5.05457539014260
H        -3.32201777286369    5.67738240484735    4.75466367726639
C        -0.28800432726453    8.11414220793025    3.62110650081589
H        -1.23081220068299    7.94142142226571    3.12235496198487
C         3.33729326426377    1.14666429690372    2.05731496708427
H         2.41716722180659    0.79627764713367    2.50049945777003
C        -1.90696578581182    5.91627296600965    6.34277467781059
H        -2.64062606430242    6.28058756489645    7.04623825908237
C         5.68379430529046    2.05779980703018    0.90328380656686
H         6.61173776656046    2.40758860375149    0.47410062282504
C         2.12607428936629    8.56522945679461    4.89730424235414
H         3.07024036617083    8.74669130360236    5.38869982107962
C         5.44171701752688    0.69765126193713    0.99834430359152
H         6.16930565321405   -0.00831872251065    0.62638979786498
C         0.97356107194734    9.17918247488499    5.35910318014325
H         1.01529902972272    9.83275076769048    6.21783153933831
C        -0.23065180971340    8.96180725622295    4.71286932629066
H        -1.12957537160665    9.44731359265244    5.06279745561134
C         4.26802697194631    0.24469858691954    1.57767256890410
H         4.07750657518277   -0.81547340891902    1.65523262205797
C         2.56946740835335    3.46431340900732    2.44147726978626
C         0.99005152203257    4.53051507043327    3.57498347134012
C        -0.01769184825960    4.99779039119179    4.52884817726134
C         3.56569807421563    2.51630270088020    1.94899185535402
C         1.77716636990936    3.39591998594202    3.59697316932848
H         1.78283402019626    2.62932162104024    4.34403677981087
Cl        1.62761451160123    3.46120136829381   -0.91701919031491
N         4.57420594357935    5.01065937676108   -2.45130797371818
N         3.61500059015695    5.63988035801878   -1.78051134528001
C         5.53145208737367    4.90410167586885   -5.82952709101735
H         4.49746818726036    5.00650243706214   -6.12315481389408
C         5.02907633216449    2.74240343698778   -3.17119681789751
C         3.81606270996063    2.49917260700467   -3.80375610986067
H         2.91664431102718    2.96517388489380   -3.42728147804113
C         7.23794456684577    5.09683895598969   -4.14880266119261
H         7.53605070135690    5.36996845356510   -3.14678419133626
C         6.47321890726886    4.43965749380287   -6.72826833811048
H         6.17407257777155    4.18209211615581   -7.73323483175115
C         1.13655168127423    7.24736387213965   -1.36630691424872
H         0.91486067621634    6.17872360288579   -1.34011734288286
C         5.07575099440425    3.72242667887389   -2.02939733181819
H         6.09748759961333    3.82973382597515   -1.64897294341918
H         4.41672659966098    3.37999550780213   -1.20947257141065
C         8.17763473687587    4.64098216537925   -5.05435308947775
H         9.21110745412776    4.54745043451666   -4.75468794498343
C         6.17640162182282    2.10764789775543   -3.62286922858291
H         7.11961588428535    2.28144627088391   -3.12525897584434
C         2.55013938300777    9.07315274203264   -2.05742842628402
H         3.47020310650629    9.42364451852803   -2.50066417205652
C         7.79570376051665    4.30327215281688   -6.34168491956739
H         8.52961936840829    3.93869636087752   -7.04476304766972
C         0.20374494615223    8.16177452589874   -0.90339755363361
H        -0.72416753992498    7.81189010476663   -0.47422358760694
C         3.76128304609040    1.65381117810841   -4.89613253886876
H         2.81673086831758    1.47128332093277   -5.38639754980177
C         0.44570100784061    9.52194801930059   -0.99839877092209
H        -0.28193896399258   10.22784084235205   -0.62639665652259
C         4.91401359119981    1.04153776251981   -5.35961280929404
H         4.87203768144582    0.38820606946447   -6.21851325257849
C         6.11876121663990    1.26026189285751   -4.71483000560703
H         7.01786864069757    0.77602433049738   -5.06604172297067
C         1.61932865765320    9.97502404724347   -1.57775790997212
H         1.80974783401813   11.03521781041581   -1.65529324786954
C         3.31823647111833    6.75558651223489   -2.44156499738221
C         4.89786723473359    5.68973383164508   -3.57507116612225
C         5.90585912616057    5.22244452205614   -4.52875150320487
C         2.32188662007354    7.70348495729801   -1.94909574913710
C         4.11061967402692    6.82421588071225   -3.59701490145485
H         4.10489116735327    7.59085769021861   -4.34404058377666

