65
CSD_code = KEVVAK | q = 0 | S = 0 | Stoichiometry = C18H40N2O4Ti | MND = 6
Ti        4.90590115496567    2.80861993855284    3.60902369332323
O         5.63522527517589    3.98839157283027    2.44643160507430
O         4.94370073249455    1.32357107963126    4.64243272949740
O         4.44047565706425    3.88655718180711    4.92176763974313
O         3.49042777781121    2.47805554813826    2.61499257680689
N         7.12695031202224    3.11509610963677    4.26278189533279
N         6.03570080214642    1.16428471351857    2.39096748108722
C         6.42916634283856    5.02889251395643    2.86094119587910
C         5.56677608835069    6.23354181892935    3.29787849760452
H         4.99048072176028    6.59359197686824    2.44796308458156
H         6.18893205377015    7.04196856814810    3.67769600204643
H         4.88298414540828    5.89218968636830    4.07373454715617
C         7.34785499064264    5.51179728859060    1.71032100699611
H         8.02361159382610    4.72825374331626    1.37285571407459
H         7.93809132323543    6.36840918279841    2.02800874443536
H         6.72698834707394    5.80414927146654    0.86658711964115
C         7.28032831756915    4.55564701941418    4.09425702301730
H         8.34126428933455    4.83433014697785    3.97877257578388
H         6.88785163606515    5.03939851187361    4.99026368449234
C         7.40121756495612    2.71056791212538    5.63135196756379
H         7.19452498247224    1.64809946481563    5.74980215424668
H         6.73658649711685    3.25102228705344    6.30350730345617
H         8.44916262082839    2.91303031022220    5.91231835296698
C         7.96675929443643    2.38809818329160    3.31769679099052
H         8.98585599469322    2.24766851347264    3.72355986261458
H         8.04307284791492    2.97499404299351    2.40307979928184
C         7.36655407613817    1.02703287499644    2.97152868603790
H         8.04421983439404    0.49171842280857    2.28071974962832
H         7.28401254716431    0.44276827480645    3.88723831792229
C         6.10824386075618    1.42929058582286    0.96401910481823
H         6.64158808670729    2.36246493969084    0.78960388749849
H         5.09998581517081    1.54894079654501    0.57078682054391
H         6.61590185117438    0.61119048440709    0.42433117778543
C         5.22094171924555   -0.01228386650609    2.67231246040438
H         5.79244768580395   -0.94217845287679    2.51353872151865
H         4.37290085486465   -0.00217395455775    1.98558499808924
C         4.67111828331041    0.07467501636751    4.14193565219481
C         5.30283395741818   -1.02473537400338    5.03267559450316
H         6.38756280328017   -0.94485900195767    5.07053971318524
H         5.03883144743691   -2.01291650514116    4.66269901651996
H         4.92379643184006   -0.91418208615455    6.04606815069034
C         3.14787131157349   -0.17883309739666    4.10850600488178
H         2.75391457342955   -0.15030789366751    5.12243548475478
H         2.92230353920196   -1.14599291841399    3.66292816209185
H         2.68845399781675    0.61777072075891    3.52513937907210
C         3.72676521756223    3.58168937732538    6.06649779035116
H         4.15888522916067    2.66630209835798    6.52437706332380
C         3.82956619335556    4.73723574920599    7.07874801560881
H         4.87174367031316    4.92575573901990    7.33089665778691
H         3.28456724312320    4.49666628131344    7.98825751145847
H         3.41218662403125    5.64317108779448    6.64235499014250
C         2.25351175442616    3.29517294925188    5.73578316236357
H         1.74856723919100    4.21871425096397    5.45522916411317
H         1.74283065331386    2.85520683507986    6.59013929466805
H         2.23452874042377    2.60310287638170    4.89325694726661
C         2.88747151850290    3.29739086734722    1.67805128554413
H         3.67034137680076    3.70945072214707    1.00617426305403
C         2.17738961472703    4.47973547832503    2.35611315139109
H         1.28686646556152    4.13022620500514    2.87678970271301
H         1.88962279209044    5.23070823771494    1.62292647041754
H         2.87194354230110    4.91044485220874    3.07812513575381
C         1.88608672452776    2.48861080352934    0.83334907337712
H         2.39221227527165    1.66318098336348    0.33558175536926
H         1.42185622748782    3.12261098804841    0.08185856644395
H         1.11248285712856    2.07760806529121    1.47980586901805

