47
CSD_code = KEVVUC | q = 0 | S = 0 | Stoichiometry = C22H20FeO3S | MND = 7
Fe        3.52149919842937    1.34843069562199   22.96693423691814
S         3.48814806251127    3.56145511423857   23.76081332123212
O         5.91310159389836    0.48474737639004   24.39720980073618
O         1.60128247050265    0.41713095775645   24.96698232500004
O         3.64693520950253   -1.03872561422364   21.31249457402465
C         3.21739587306358    3.19804761978761   22.06318696311080
C         1.92254906748720    2.71930204858012   21.74343055238886
C         4.32576111996333    2.63779809387209   21.36157789839158
C         5.01749517618718    0.87720766288320   23.80727686061897
C         2.33842511411843    0.77438043896883   24.17350674654156
C         3.54756625453504   -0.08602697239015   21.93882910837974
C         5.72981857719019    3.20412851531841   21.24226739890701
C         1.61847993909547    2.32683377272878   20.34004150624217
C         1.20672962612932    1.04502938211631   19.99662754872014
C         0.90409462694877    0.73480213366924   18.68290075243224
C         1.00675113447929    1.70134964617482   17.69714971376085
C         1.41513329903111    2.98184972889960   18.03084333746240
C         1.71789521232823    3.29476027731069   19.34283496789292
C         0.72600200585652    3.15929101219996   22.49537964197443
C        -0.34085483035791    2.28884859692634   22.70921755808882
C        -1.46051035944819    2.70698809078167   23.40039503234521
C        -1.53926434734130    4.00466736898330   23.88011043813847
C        -0.49315353417324    4.88216809087994   23.65679321374984
C         0.63126368000772    4.46723118590564   22.96688509259580
C         6.32970271826029    3.78184679492197   22.52163494980462
C         5.65392923692267    4.31972337165431   20.18474300429284
C         6.64005759229308    2.08230758456838   20.73011567336098
H         4.03735144557736    2.23574716885804   20.38454729202918
H         1.14340453115162    0.28364317078454   20.76150524188008
H         0.59239874234858   -0.26733809417034   18.42865118228561
H         0.77238877516749    1.45716065585928   16.67194188464224
H         1.49957002003388    3.74056932630190   17.26679721922916
H         2.03471988500100    4.29408407381038   19.60526681299449
H        -0.27869136073825    1.27169011559260   22.35169375596815
H        -2.27332268765587    2.01634906553404   23.57044197916759
H        -2.41402315946204    4.32897191801066   24.42382432607975
H        -0.54948837737230    5.89711750411448   24.02139462366569
H         1.43782120649912    5.16229196144709   22.78709718927931
H         5.76390840880126    4.64000082577149   22.87250824332309
H         6.34981258014834    3.03638519708945   23.31307020486751
H         7.35184538656951    4.10153004973622   22.32850671842062
H         6.64462256415319    4.73179108396764   20.00785993009655
H         5.00328819472049    5.12148018165093   20.52780854644506
H         5.26615669875800    3.93822426775534   19.24208642061028
H         7.64453428197250    2.45915878933593   20.55372246639345
H         6.69479146109276    1.27981782129257   21.46348612372685
H         6.26047768581231    1.66695194273496   19.79880762178658

