46
CSD_code = KEVXAK | q = 0 | S = 0 | Stoichiometry = C17H27HfP | MND = 13
Hf        7.65001285423994   11.30051442677022    3.21674037546595
P         5.73038372549821   13.31953617307852    2.66404876664175
C         8.04747402210313   12.84113131688442    4.66747923031870
C         8.78522190737202   11.65777787322420    5.10917694919655
C         8.31729153451114   11.05464009565303    6.42661113302584
C        10.30447650447029   11.69801431679859    5.06969648756111
C         4.29668859374883   13.44318411758528    3.82381138248691
C         4.81806976783095   13.44683053509471    1.06510306094817
C         6.28334609757281   15.07538935384413    2.81676298808039
C         7.04634601054533    8.76205984402069    3.03538105582253
C         6.87341052610096    9.31303913051606    4.31686566294993
C         5.79640113765992   10.23797890891765    4.24681183338575
C         5.32750193997552   10.23649212084680    2.91664596075723
C         6.09276054597271    9.32649430200213    2.18106290887379
C         7.87116770978309   11.46852449764928    0.75565859493600
C         8.73504409079066   10.48376522740744    1.27520731896725
C         9.75377830788111   11.14009959101821    2.00370294277320
C         9.52950532497104   12.52718133203939    1.89527634726659
C         8.37349904813815   12.72630807202953    1.13295067472876
H         8.63800384565910   13.68040689062040    4.30942731668307
H         7.21744330147846   13.13944022309433    5.30786298809429
H         7.23351545708953   10.98795467422592    6.48845319876067
H         8.65597280044701   11.69264549688697    7.24933873239314
H         8.74627252339697   10.06713539327846    6.59188170920899
H        10.72472284214282   10.69504534625771    4.98680081731744
H        10.68091102386955   12.12951953321804    6.00236224302803
H        10.67748102120802   12.30580616710479    4.25164939745101
H         3.70364301300655   14.32936073185000    3.59986236559048
H         4.66853894343819   13.51093846594983    4.84429062375116
H         3.66766111829487   12.56074438965349    3.74419925611767
H         5.52867411064485   13.64294316382139    0.26507802908436
H         4.08199995116745   14.24951850341934    1.10251675241001
H         4.31538038837440   12.50484880805723    0.85589606965310
H         7.14259594207374   15.25761355299734    2.17727135628619
H         6.57405612136083   15.26657205195400    3.84710535032332
H         5.47570190173928   15.75156862508336    2.53772940515613
H         7.71915128761939    7.95256924096643    2.79324949921091
H         7.32618685089051    8.93013526003206    5.21695585191258
H         5.30811315929924   10.71229436834644    5.08727415867846
H         4.43274434391847   10.72624760511146    2.56059297943517
H         5.92621207083566    9.05269402382616    1.15054578228775
H         7.05815027238089   11.29578188748401    0.06534045103175
H         8.73789347116854    9.43886227158388    1.00437275712073
H        10.64429422198382   10.66632530638072    2.38943403136649
H        10.19215491711173   13.30842856004587    2.23678976721311
H         8.01874545023128   13.67983822337162    0.77152543624856

