39
CSD_code = KEVZER | q = 0 | S = 0 | Stoichiometry = C12H16BN6O3Re | MND = 6
Re        0.78610505502373    6.97292070862547    7.59298111815797
B        -1.31105429666769    7.84457614789877   10.04608283793218
H        -2.00456004023445    8.17602473562791   10.94099959519621
N        -1.43182356637194    6.60756133898925    7.89795845848196
N        -2.07413536108438    7.03444014601449    8.98934365336083
C        -2.31136477563350    5.98090933601678    7.13058009617440
H        -2.02122986565794    5.56120738354658    6.18769467717369
C        -3.56310638138613    5.99524210744165    7.74174133944211
H        -4.47455297205237    5.57166855648643    7.37398754268987
C        -3.36293603250514    6.67899078194396    8.92400045844385
H        -4.04819066149582    6.93000499166760    9.70802864679635
N         0.01670711886622    8.88564987207817    8.19747973959209
N        -0.73033916415520    9.05202762362895    9.29343448310402
C         0.26614318113062   10.08017924190453    7.68092141578550
H         0.85987158191200   10.17145803303121    6.79355548723473
C        -0.33865443755217   11.05868233558928    8.46492785191088
H        -0.32242357290964   12.11830367905999    8.31722309177086
C        -0.96466329359372   10.35704916714859    9.47597341386805
H        -1.55524059310832   10.70483768235027   10.29907927312950
N         0.70024768464029    6.40975084296592    9.65002108336219
N        -0.15944901774849    6.94591237655364   10.52116587210311
C         1.50743918429901    5.59374310155472   10.31234397745226
H         2.28015389097472    5.06107737792708    9.79532722316626
C         1.16299540189359    5.59694800171731   11.66069611641303
H         1.62287676510662    5.04703535298125   12.45515297915920
C         0.09464836400043    6.46851169916566   11.74488947776378
H        -0.48940851031432    6.76930670137152   12.59089647381201
O         2.32844329401974    7.59817451322950    7.74482648328198
O         0.29642159034400    7.15501160783858    5.70599226263215
O         0.86068682674805    5.11526100620839    7.04938141152901
C         0.83147257293352    6.16524727318778    4.88839392829291
H         0.18601336408489    6.07064981299816    3.99854867459938
C         0.84916558998489    4.83874437026227    5.69292500448607
H        -0.04110018787227    4.22837628852087    5.46482536582749
H         1.73994244771491    4.24514956879067    5.43989685089941
C         2.25131277047763    6.55356237923091    4.45512420295548
H         2.22292458040040    7.49855291713061    3.91905421198391
H         2.67899628937285    5.78645466485799    3.81436979210939
H         2.86476517641521    6.67829627445733    5.34827542792590

