83
CSD_code = KEWCOE | q = 0 | S = 0 | Stoichiometry = C27H51NS3W | MND = 9
W         6.12812232617036    5.38300163177065   -2.50972392665078
S         4.89945523265035    3.27995571747718   -3.14587654467633
S         3.93615514522179    6.36436058578171   -2.90680290831741
S         6.21091360219111    6.45473041657534   -0.34862313072054
N         7.57229167017783    2.77729931316787   -1.37921167925060
C         8.28552023393056    5.87877446932328   -3.10335133966881
C         7.65703939236446    7.17475257214583   -3.20491308259165
C         6.66999447900940    7.10284837757944   -4.20425174811339
C         6.64919704748239    5.76123620641494   -4.71676446173624
C         7.69933305731322    5.01766663081131   -4.10016330087809
C         9.58820602236415    5.64066262273468   -2.39354763603429
C         8.12052057431994    8.38618039797110   -2.45625711705163
C         5.90883028838779    8.21879840699455   -4.84446750781271
C         5.81924631800963    5.31020116335449   -5.88054775139013
C         8.22874165729861    3.70912380806768   -4.60368055305072
C         3.21880942569459    2.92418059878198   -2.43301757246477
C         3.19146644605690    3.47813524626271   -1.01460511092177
C         2.14212186120593    3.54104073944549   -3.31578983163009
C         3.06490527277832    1.40549970788385   -2.42353303416729
C         3.29940184665373    7.82085630370809   -1.95459332453122
C         4.34689296720037    8.91322976412287   -1.80259375896028
C         2.10611588188684    8.33372125463393   -2.75760660931630
C         2.83588533916072    7.32354457872537   -0.59005978951674
C         6.76075520764223    5.57213386330180    1.18790690552774
C         6.53851948074507    6.56246000072645    2.32720685189154
C         8.23769339962775    5.22271755452044    1.07002065552857
C         5.89736508084789    4.33402630212874    1.38148520388309
C         6.97507421179831    3.73958698718772   -1.70041063026295
C         7.96086810764169    1.44960378633841   -1.08845949018570
C         8.91230971142261    0.96056759321345   -2.18443398009839
C         6.69702767630513    0.58645935548991   -1.06022533218269
C         8.66410072784271    1.44006717613371    0.27337398567439
H         9.63516973615584    6.21773950457268   -1.47216458372219
H         9.71700513318308    4.58764703945939   -2.14863796109059
H        10.42177337270223    5.94664942149302   -3.03043085848913
H         9.17949409540016    8.56364011858807   -2.64910088519566
H         7.56036785435453    9.26920344360868   -2.75351984221323
H         7.98627565891055    8.24841360065992   -1.38092952427912
H         6.16254887096006    8.26280207265154   -5.90511039664769
H         4.83366584836971    8.04877390058135   -4.76748712294170
H         6.14926616277821    9.17747825813868   -4.39172119270846
H         6.25835926433353    5.65312063230524   -6.82032874984580
H         5.75298167795025    4.22373847061844   -5.90246703639512
H         4.80919376852351    5.71369977703020   -5.80441164409704
H         9.03009966108354    3.34505543821299   -3.96723186996621
H         7.43631151869032    2.96072754609721   -4.63324643489930
H         8.62155824200353    3.83199198405516   -5.61454760838878
H         2.17376381832887    3.48913806886917   -0.62686449059476
H         3.80736112250510    2.86268637245924   -0.35970920298317
H         3.58938279366778    4.49939606060418   -1.00362441030294
H         2.22900314143241    3.15906544032277   -4.33083725195716
H         1.15518205837391    3.28800435879932   -2.92977129391546
H         2.24657785977336    4.62180941861618   -3.34482320472822
H         3.16270329933300    1.01078302594248   -3.43195797870600
H         3.82358341063150    0.94297057039251   -1.79779589802674
H         2.08310695892967    1.13759279306659   -2.03600336950877
H         4.53766189877438    9.40138730063800   -2.75449376735508
H         3.99107558146757    9.66485040797136   -1.09858525065497
H         5.27631333843792    8.49829965109189   -1.41884857656704
H         1.35971461321650    7.55016302622617   -2.87059552663330
H         1.65076411129029    9.18151142397670   -2.24749586302736
H         2.41767038699385    8.65119865342890   -3.75110494414886
H         3.68085957745193    6.92446374089158   -0.03195864646375
H         2.40048863025103    8.14378635330995   -0.02032538140024
H         2.08642225935273    6.54252766092639   -0.70499981880416
H         5.49016938217167    6.84609555886452    2.38397773549811
H         6.83355722104699    6.11657056895979    3.27589394298002
H         7.12512488973063    7.46369233283973    2.16477777508667
H         8.82895527868767    6.13133145196610    0.97118519856478
H         8.57081352211500    4.69058247189002    1.96061409147598
H         8.41019342776376    4.59646568021813    0.19829309526936
H         5.94324030591698    3.70301478500158    0.49336088738090
H         6.23764302891698    3.76272661235631    2.24509386369132
H         4.86001348635387    4.62260567330971    1.54321164512180
H         9.79320587600181    1.59694674264799   -2.23909711956005
H         9.23333459679236   -0.05427796680580   -1.96451043047583
H         8.41025727722734    0.96951143251530   -3.14830733830934
H         6.96023732174053   -0.45907997995182   -0.92422627072086
H         6.04764742945940    0.89516914322409   -0.24369955081726
H         6.15695309017502    0.70350280484612   -1.99721155777191
H         9.55999748867580    2.05668627848535    0.24431610430167
H         8.00224138271234    1.82953768732078    1.04318115641841
H         8.94782957747897    0.42448005393315    0.53619490821385

