68
CSD_code = KEWCAQ | q = 0 | S = 0 | Stoichiometry = C22H42S3W | MND = 8
W         0.13523839961961   12.12789816007926    1.06244240368532
S        -0.53099646636870   10.79964967647740    2.92642964854529
S        -1.26018702316505   11.03840807025385   -0.48794603327542
S        -0.97825303642749   14.03161749119388    1.77838702062313
C         1.96195152132171   12.30756260986671   -0.27125322736981
C         2.05433833915764   13.21738590425737    0.84547682905616
C         2.20388131526777   12.41601167848360    2.01788227115241
C         2.35308977057152   11.04061728819366    1.61625636622022
C         2.17338262106508   10.96439755774225    0.22879245592390
C         2.19081727804317   12.68536090063700   -1.70864620788944
C         2.20542102796878   14.70756018304224    0.77390374218461
C         2.43070503924671   12.91739108297054    3.41217551879942
C         2.72938330539731    9.96054112420344    2.57640404501613
C         2.33771932962436    9.76682711667296   -0.65774499390188
C        -1.11371834508911    9.06460043082219    2.60304014746296
C        -0.96339576396769    8.32316019001765    3.92792557027531
C        -0.27751131719019    8.41481151197447    1.51403637975419
C        -2.57946366066755    9.12482835310877    2.19244481035673
C        -1.88771144488426   12.12961644539563   -1.85219886709828
C        -1.22444212559293   11.67748855919439   -3.14838085476149
C        -3.39370309852542   11.90205974543266   -1.93296082840577
C        -1.56472893721830   13.58293764014282   -1.53994089454755
C        -2.60409756089087   13.93699783228482    2.66519213898140
C        -2.31124214734396   13.58840673658530    4.11737814640262
C        -3.45024498438029   12.86668146562865    1.99209594632197
C        -3.25021079923981   15.31219656252598    2.55093142639633
H         3.26140770661943   12.82218481153066   -1.88064073516509
H         1.84601470756230   11.89853026637615   -2.37716337096297
H         1.69185295354009   13.61680196463588   -1.97433318815824
H         1.62208150750167   15.19360061034531    1.55622238307184
H         3.25258335930888   14.98724923884424    0.90140856065047
H         1.86436576114118   15.09060884788415   -0.18593468606230
H         1.92014463220600   12.27559859878857    4.13054978001652
H         3.49605187450443   12.92313244526476    3.65123718471324
H         2.04748442441287   13.92992544207651    3.52166340758312
H         1.93485569478121    9.81412435406583    3.31130699510387
H         2.92169441690991    9.02035447609435    2.06585237461062
H         3.63025336236808   10.25366611773557    3.11618811293215
H         2.42425009098818    8.85482810653292   -0.07352645168787
H         1.48323977101245    9.65967891056675   -1.32667761218724
H         3.23693294308855    9.87413364914183   -1.26746440210698
H        -1.31057603807544    7.29683725897231    3.82094242187290
H         0.07705277410061    8.30779813932301    4.24526188630847
H        -1.54844378792474    8.81223317368227    4.70336254862370
H        -0.73994288873961    7.47918742563345    1.20391736275305
H        -0.21801397746676    9.07318801084625    0.64853361677756
H         0.72549832497798    8.20250749048203    1.87188822716813
H        -3.16635768864718    9.64383665473303    2.94764563559871
H        -2.67897317951159    9.64509127460367    1.24179405153283
H        -2.97534867526639    8.11699783754168    2.07653895117000
H        -1.38232035061365   10.61130212547801   -3.29733378730378
H        -1.65063420137610   12.21475230176668   -3.99474625957484
H        -0.15481344648231   11.86743894270367   -3.12147403408098
H        -3.86963734185184   12.13690099236412   -0.98339694696821
H        -3.82779441155247   12.53176870397638   -2.70832150061936
H        -3.60297058716972   10.86079915218323   -2.16783505346976
H        -0.51763608354404   13.68709372939476   -1.23379297087230
H        -1.73669234692537   14.20748722622609   -2.41659008161652
H        -2.19232548543867   13.94939295847566   -0.72785633424110
H        -1.77781279026766   12.64026012702890    4.17494302539332
H        -1.69462787007126   14.36009529567985    4.57430024046598
H        -3.24041055679271   13.50428868927642    4.67885278548903
H        -4.32037033984434   12.62720768444151    2.60150225205668
H        -3.79738361110048   13.21243163380529    1.01872437733692
H        -2.85504828003171   11.95903330736144    1.85118866492212
H        -2.61628902282533   16.06804269817890    3.00939070037893
H        -3.40128454813048   15.58154150050155    1.50706642939671
H        -4.21557803154485   15.31225350812698    3.05468247919902

