45
CSD_code = KEWCOH | q = 0 | S = 0 | Stoichiometry = C21H16MnN3O4 | MND = 6
Mn        6.16266626951796    1.58328150653208    4.87617685855301
N         8.98638131010514    1.99299620719525    3.69108475560076
C         7.76318191713053    1.72090558658656    3.52478177475449
O         7.31258873475389    1.68597296566770    2.25600091432791
C         8.26784528462964    1.87051319247504    1.21957382228379
H         7.72380863519299    1.77147825229160    0.28280854074825
H         9.05403930439117    1.11562048296932    1.28680614490175
H         8.72531907750100    2.86063768082011    1.29386868208943
C         9.78295685803251    1.99172979839383    4.79947748252909
C        10.05827859625532    0.80893709075253    5.49613062872720
H         9.58476808685751   -0.10788609334231    5.17803919568841
C        10.93143412552484    0.82031318606025    6.56413175534029
H        11.13031862058203   -0.09752409571862    7.09874325307826
C        11.55183122385755    1.99666424953083    6.95441060383582
H        12.23344582280086    2.00045090128333    7.79203564592592
C        11.30955079503795    3.16486598324437    6.24853524586786
H        11.80551677404462    4.08160202231471    6.53574802131249
C        10.44030545137869    3.16754935419029    5.17790596384736
H        10.25008558555239    4.07601717836185    4.62317417124604
C         5.23915694950394    0.71670224568629    3.61735031405604
O         4.63418924000701    0.10199136474181    2.85560257834549
C         6.77404224123618   -0.01833861599248    5.36344840138745
O         7.12381157960781   -1.08747791637525    5.61969836389634
C         4.74923773063654    1.57452222196724    5.97125000343054
O         3.83744929518076    1.54284018472378    6.66940930308948
N         7.23484048288420    2.63008619909587    6.18119641024488
C         7.32766496410761    3.95641887133884    5.92780901815718
C         8.06105235878534    4.81533000405263    6.75183858279448
H         8.12099378578445    5.86644255582681    6.52097828099488
C         8.70319260771483    4.31283238437556    7.86084252553608
H         9.27892634703968    4.95843231075357    8.50529247955027
C         8.58349922750538    2.95383791446962    8.13279480515282
H         9.05809510546906    2.51372816459800    8.99393591735868
C         7.85017256163645    2.16350974948319    7.27321596969955
H         7.74935430554487    1.10392395992675    7.47107974105975
N         5.88644825122856    3.40015582396896    4.14666437761337
C         6.59195495507698    4.38819867334451    4.75149660375885
C         6.59293954195801    5.69813950453186    4.26592345253501
H         7.17641772448485    6.45712153238712    4.76116472288363
C         5.85410523688560    6.01317563451294    3.14653110286151
H         5.84808602721195    7.01734712057721    2.75216254193131
C         5.11614054305030    5.00053089202498    2.54081013941216
H         4.51583309385358    5.19682139962926    1.66715338885176
C         5.16311685238474    3.72795037888408    3.06898566114727
H         4.59885651807512    2.93065199185838    2.60283185359055

