54
CSD_code = KEWDEW | q = 0 | S = 0 | Stoichiometry = C13H36P4W | MND = 6
W         3.64372212838435    1.24923245555829    0.67548547220505
P         5.35900333334361    2.13214594386222    2.12701400186079
P         2.00456293674619    2.74731087991865    1.58382767867050
P         3.05366036497390    1.70913382214387   -1.58367342670243
P         5.00163691965078   -0.64617261827798    0.11070228083266
C         2.36919447435659   -0.07116746554266    1.12581223481634
H         1.62320690656981   -0.83621743818055    1.37391906526074
C         5.27858398286563    2.78833084688234    0.46797441246447
H         6.21572444456278    2.59958571509574   -0.07243625586261
H         5.08638678649547    3.86936875889832    0.48485734914606
C         7.09260473804437    1.56797305366361    2.45566350039999
H         7.77894255779254    2.41093178103089    2.35338000324726
H         7.36693115214863    0.79218704873813    1.74367209171343
H         7.16767370893696    1.16278449898197    3.46565778603595
C         5.34084570975236    3.54456414852560    3.32564545761769
H         6.19491688906584    4.19811543215454    3.13724225896430
H         5.39491028048112    3.16642482253542    4.34738729577255
H         4.42022238381223    4.11271514927521    3.20896265396413
C         1.74551150119433    2.45548013814729    3.37811579822346
H         0.93820328210936    3.07010499491385    3.77888209705928
H         2.66844526548360    2.65365085456059    3.91968391300270
H         1.50634209249451    1.39913371053489    3.49197571834951
C         1.99318555130678    4.59878926170473    1.55789947029417
H         1.17950956277310    4.98800575989007    2.17065503244897
H         1.86812052116986    4.94120340531925    0.53199645106989
H         2.93933524795567    4.98688970081848    1.92913807771237
C         0.27679871979449    2.47273079764817    1.02195179337873
H        -0.42836131830111    3.03928652197954    1.63117890663829
H         0.07148454335029    1.40790362786924    1.10585629621027
H         0.17242540407248    2.76515563241026   -0.02112797760435
C         2.60626655675933    3.44147105879317   -2.01603225769155
H         2.44706835276426    3.55461087011961   -3.08905333539866
H         3.41869835672224    4.09226021651623   -1.69566425264497
H         1.70017109881327    3.72127221200639   -1.48214173373501
C         1.65136261988451    0.81536506361855   -2.35760448373649
H         1.50284440340841    1.12552865385986   -3.39237462633774
H         0.75480812674417    1.01315622967966   -1.77428427703531
H         1.85826019646824   -0.25156147420970   -2.31154875054803
C         4.34304250119370    1.45738484372000   -2.87296676003180
H         3.99794673172983    1.79437744568045   -3.85112958445371
H         4.59895217090535    0.40076462508927   -2.92151971517573
H         5.22857620883283    2.02105997594850   -2.58274485086499
C         4.17551285290457   -1.94998891904117   -0.88610999573142
H         4.78077665000148   -2.85635599859445   -0.92543412593256
H         3.99527716574842   -1.58911576262647   -1.89687581417087
H         3.21694730437321   -2.16093936920622   -0.41743915909716
C         6.64674223961636   -0.67576231896228   -0.73910603378398
H         7.07893612388817   -1.67641452574148   -0.70910816151267
H         7.32962125663820    0.02470470674352   -0.26296163231249
H         6.51866130891205   -0.36904283862548   -1.77586082814941
C         5.39296452390830   -1.65929448752103    1.59135793275355
H         5.92181614513901   -2.57685332768394    1.32954395282749
H         4.44289846839073   -1.89546574708829    2.06849318490355
H         5.98681856489181   -1.07424237355061    2.29086587064113

