76
CSD_code = KEWLUU | q = 0 | S = 0 | Stoichiometry = C23H50MoP2 | MND = 10
Mo        6.46183557253285    3.75446081057922    0.94034391481563
P         5.13775282736765    2.37817787057015   -0.50555806013033
P         6.71187395279951    1.95323195805677    2.45846053012618
C         8.32508364479697    4.67461435998278   -0.12287151694910
C         7.16129691643937    5.23461434533111   -0.69823860908319
H         6.95545896505943    5.21088251977286   -1.75745910344477
C         6.46827408936922    6.02872592674172    0.25200192109311
C         7.20470172325658    5.91223554944670    1.49131627555729
C         8.32260994175304    5.06037343538261    1.23313259771355
H         9.16260349055082    4.92849671135801    1.89622874985399
C         9.51557887588616    4.13053305306393   -0.87897237678471
C        10.36760942301784    5.34940390759449   -1.27572413440831
H         9.79226893217523    6.03041469978613   -1.90063593739288
H        11.24884340170630    5.03113603052422   -1.82973017287488
H        10.69234243092069    5.89277296537998   -0.39017772359345
C        10.35982162446366    3.19039123592822   -0.01372524371201
H        10.76809942232813    3.70885286964622    0.85062255562759
H        11.19199893764961    2.79444627239690   -0.59338238586402
H         9.75280723402262    2.35715889806755    0.33486911615578
C         9.09500491529195    3.38060020047793   -2.14513605551598
H         8.44662432770764    2.54782634290686   -1.88253499122081
H         9.97213992790094    2.98804621011890   -2.65711649586969
H         8.56669885698062    4.03367141710195   -2.83657941395139
C         5.35680976533944    6.98018645838430   -0.20298827146559
C         5.11321595252836    6.86280715372097   -1.71885841435222
H         4.83464759987916    5.85398829241306   -2.00295215321930
H         5.99085155052264    7.16846463516354   -2.28609383547944
H         4.29201258371138    7.52205210088037   -1.99685587735397
C         4.01099076631570    6.69159659383789    0.47238368611739
H         4.08747650574724    6.67664905041126    1.55117102220920
H         3.64624659726149    5.71646605161961    0.15882397484015
H         3.27950681523675    7.44611574765606    0.18496487594991
C         5.77164216420548    8.44568294517836    0.01393263073144
H         5.07380915948604    9.10202719789639   -0.50433525126472
H         6.76595477989875    8.61689973171730   -0.39660941729016
H         5.77125808987560    8.73094982412338    1.05868693065769
C         7.21571683232800    6.71248533939562    2.79768208676460
C         5.84394168874098    7.14915553132316    3.32021871425013
H         5.36105245389072    7.87816566189453    2.68148720425678
H         5.95910671435496    7.60644765780724    4.30243595820442
H         5.19784579462415    6.27941449324703    3.42518562179459
C         8.12333749881333    7.93736053654235    2.57888410900485
H         7.75424355247600    8.57937778128064    1.78649803141714
H         9.12739077599976    7.61491446748281    2.30825426858831
H         8.18590015924454    8.52213900625001    3.49503502667397
C         7.83520495296471    5.89823039699524    3.94811544945288
H         7.78799487582727    6.47975733691033    4.86755921672763
H         8.87950832210387    5.65559464018753    3.77463390370285
H         7.27495004823357    4.97830464410408    4.09630818081010
C         4.20692671702315    3.22042193581258   -1.84607015016435
H         3.58611852041834    2.50950737266588   -2.39218552177248
H         4.91228178489919    3.68065655634198   -2.53667154740217
H         3.57527536363103    3.98754523807294   -1.40321743710627
C         3.72224928588651    1.46511939010344    0.22088937746495
H         3.19025660337433    0.89447362273677   -0.54164973861007
H         3.05696025016706    2.20211116350049    0.66926699223981
H         4.07671356393729    0.79886995533744    1.00577704961399
C         5.87835400463126    1.05053722043710   -1.54465234543872
H         6.49113867965789    0.39536603392461   -0.93002541984169
H         6.51399725143215    1.51965632425572   -2.29460453861229
H         5.10346441017157    0.47022997025085   -2.04602333016076
C         5.48894344857215    1.70989670825042    3.80304273312936
H         5.77065483272657    0.88226204746296    4.45468163181804
H         4.50987012738058    1.52583163793580    3.36192671785381
H         5.43799263333835    2.63438021027301    4.37589432068863
C         6.93984516003513    0.21182915002219    1.91506056372269
H         7.79521576285776    0.17947276210948    1.24130501651619
H         6.05635668018511   -0.13978293600457    1.38498620245693
H         7.13010650625496   -0.43157897248309    2.77479569155993
C         8.23988696523830    2.07390544275056    3.46676660153609
H         8.33883202646136    1.23271367739852    4.15325632407134
H         8.21895673529750    3.00392618502730    4.02886147296624
H         9.08883585010343    2.09510320711818    2.78574229459209
H         7.45923845821931    2.64619411824220    0.37279153160529
H         6.07000674481380    4.16501781403691    2.41779543109330
H         4.88727619971835    3.84993329778198    1.19575896429545

