36
CSD_code = KEWQOS | q = 0 | S = 0 | Stoichiometry = C17H14Cl3PTi | MND = 8
Ti        4.58164120646844   -0.05769331170243    2.86885903205227
P         1.96958802218172   -1.26415793139678    4.03364069689076
Cl        3.23351677507983    1.27292868598366    1.85848742949754
Cl        4.59501936007211    0.83825569835594    4.82200296643174
Cl        6.39682613572673    0.85526056245922    2.14853822487547
C         0.67528394441094   -1.87515802404120    2.88148191471693
C        -0.08178778315640   -3.02104116875408    3.09090866320428
H         0.07741601296815   -3.62510245205616    3.97190554477218
C        -1.04803699358938   -3.38882373467557    2.17028071508664
H        -1.63158321734079   -4.28242861286556    2.33746794759031
C        -1.27083060202595   -2.61728139863897    1.04249087766828
H        -2.02582369831790   -2.90970372772754    0.32783658521614
C        -0.53232489537144   -1.46248071827962    0.83942633868810
H        -0.71287784993598   -0.84995917142033   -0.03166744715577
C         0.42950556708927   -1.08610530719702    1.75864726482057
H         0.99337211120361   -0.17191944777372    1.61728802072033
C         1.86430977970030   -2.48045381451550    5.39900186164795
C         1.30980224497574   -2.05437328409676    6.60079490585588
H         0.97394449895862   -1.03059625126550    6.69217582980511
C         1.19356939129815   -2.93029793414613    7.66567772585382
H         0.76197666352937   -2.59450491564731    8.59693138208878
C         1.63614173911245   -4.23617680234207    7.53699087435553
H         1.54977289747228   -4.92080055344817    8.36770775284684
C         2.19328900922253   -4.66541085120549    6.34233586177532
H         2.53767515035980   -5.68467589709940    6.24279334577996
C         2.30866421815574   -3.79411168334955    5.27497321132060
H         2.74070650985822   -4.13000812466072    4.34160293560028
C         3.44601305033680   -1.92874273960143    3.17223743125005
C         3.70237332285311   -1.84178486948295    1.77304244390724
H         2.94938191051210   -1.80125226548504    0.99440037583186
C         5.08955135525591   -2.01234580814028    1.57318519258149
H         5.58523017888161   -2.09554074757004    0.61413625271956
C         5.70392587344615   -2.17334697542906    2.83203828647912
H         6.74984701680831   -2.39676091075710    2.99992972238113
C         4.70455041573156   -2.10023398617662    3.82427100468978
H         4.84227067806255   -2.27607152584791    4.88587882815174

