83
CSD_code = KEWTUC | q = 0 | S = 0 | Stoichiometry = C41H34Cl2N3P2Re | MND = 6
Re        4.40265691072004    3.30052281590526   15.03996433169953
Cl        5.33166541709316    4.13311364572141   13.12255216456949
Cl        4.46232178932674    0.99857900138605   14.64371893221772
N         3.68356169395566    3.34790590544853   16.70523451680415
N         3.37423932487846    4.24986936784131   17.49565391586948
C         3.62350461329447    5.48430158347952   16.95585474835189
C         3.37377185684803    6.68566603606283   17.62076838339573
C         3.65053730208784    7.86499032179329   16.96570061175926
C         4.16068476200065    7.82557171912110   15.66929809758667
C         4.38658800646678    6.59973401781469   15.07744759906276
N         4.13463591467059    5.45579453416904   15.69551161616194
P         2.29000824311857    3.29796959560992   13.86630543915338
C         1.92043773168091    4.91422038850042   13.12863509903161
C         2.13442334593031    5.17264840311855   11.78016679635632
C         1.95315227672834    6.45261711209955   11.28612597477872
C         1.56540105532823    7.47854903330082   12.13138921771582
C         1.35832348771069    7.22649530592722   13.47887437565564
C         1.54139368741698    5.95207422124143   13.97859110366328
C         0.84009919918721    2.93433575025788   14.90108739680338
C        -0.40096747853145    3.53021512361312   14.69882201439562
C        -1.47174814362110    3.18040211241504   15.50176623884382
C        -1.31496819395882    2.23318165199013   16.50072933097835
C        -0.08375156991644    1.62898480478077   16.69628154686588
C         0.99136193099358    1.97704379008540   15.89978050767325
C         2.10245726122502    2.12318285370852   12.48752317159780
C         0.87888486793196    1.51622730616348   12.22195019483950
C         0.76117250192438    0.63295136406674   11.16426204048832
C         1.85744743835686    0.34489690170486   10.36823950044770
C         3.07769077136888    0.94411296343719   10.63143941389564
C         3.20227488864099    1.82873671119358   11.68651123322719
P         6.66975430342728    3.28864328216762   15.87581651400070
C         7.08947643932008    4.94573888238160   16.48197172578198
C         7.40039827502105    5.94922468065524   15.56668045043686
C         7.58270016046120    7.24905150126520   15.99927508877537
C         7.43312179422865    7.56184788066556   17.34082810168417
C         7.09499143891004    6.57253470072348   18.24955505403181
C         6.91850891824341    5.26847406669147   17.82457246596646
C         7.06076134923557    2.20476633752905   17.28463483005313
C         8.34616704386421    2.19920465652985   17.81973279567669
C         8.64556261571322    1.37083848206140   18.88393962682076
C         7.66915598332277    0.54196185915642   19.41584993180391
C         6.39169945819779    0.54328598124198   18.88234969007856
C         6.08452195513547    1.37249645216754   17.81725672287889
C         7.99924978236081    2.85828938554452   14.71396099329187
C         9.23623394890616    3.49502243036182   14.72333036350845
C        10.22372444019036    3.09169353825440   13.84279528074348
C         9.98736918426743    2.05619386978303   12.95363561559873
C         8.75912170384778    1.41623220797726   12.94762464619828
C         7.76793530478313    1.81204464611082   13.82628490164888
H         2.97404681570467    6.65601221074413   18.62018907875423
H         3.47051797023205    8.81249826944654   17.45099467556460
H         4.37975454022480    8.73186399129383   15.12940969239525
H         4.77886519789943    6.51673927061987   14.07200031589840
H         2.44556513652222    4.37381883049846   11.12188527269591
H         2.12045070371270    6.65049722707996   10.23740013692037
H         1.42764118580099    8.47662826356616   11.74198889997907
H         1.06133758078090    8.02609375711865   14.14212493224049
H         1.38911725713826    5.74896530156062   15.03116499033434
H        -0.52854123446522    4.26494470021476   13.91545284197913
H        -2.43333460945932    3.64762852356901   15.34470151992857
H        -2.15474179455043    1.96593757914726   17.12526669413178
H         0.03879009754079    0.88763660471687   17.47156320426050
H         1.95810496422723    1.51328446336635   16.04624291516634
H         0.02122139541479    1.72706883382397   12.84446953683929
H        -0.19108225609448    0.16304909635720   10.96468074369263
H         1.76130247547722   -0.35058314368689    9.54724992702342
H         3.93732504915393    0.71786368880772   10.01767556976573
H         4.15942893887506    2.28730754035763   11.89121669499777
H         7.48920929061064    5.70336555564196   14.51705841132903
H         7.83332530996851    8.02239174021929   15.28770689275924
H         7.57224255319604    8.57898777418948   17.67651446809515
H         6.96349892552614    6.81875576003273   19.29300117062525
H         6.64249134876747    4.49570305089746   18.52867635861965
H         9.10664998545810    2.84454382047943   17.40202952516880
H         9.64293286329715    1.36843169706894   19.29964551310047
H         7.90865519092778   -0.10626777437658   20.24611290973529
H         5.63193601532818   -0.10394910337467   19.29454550142909
H         5.09012022918439    1.37833487212718   17.39193128729016
H         9.42661283230232    4.31064606553292   15.40762432799599
H        11.18207757546397    3.59115802841500   13.84972111819055
H        10.76142825049075    1.75028520860643   12.26491844338472
H         8.57185459280987    0.60829077059865   12.25565452061539
H         6.80728063000902    1.31412834256304   13.82480159625680

