78
CSD_code = KEWVIS | q = 0 | S = 0 | Stoichiometry = C32H40NO4V | MND = 5
V         2.07483438116066    0.39468775155947   21.55719762472183
N         0.63714775484844    1.62647712401804   22.54365141025550
O         1.01541704298648    0.87177445960486   20.30105739905575
O         2.10005998276999   -0.32417266984760   23.12337973047044
O         2.59310663724620   -0.93138379155779   20.73957590195020
O         3.20746933723323    1.43459563395595   21.59664999578190
C         0.17725499990673    1.95186763379385   20.24173119418924
H        -0.85691016303469    1.59500121657571   20.05142863336619
C         0.18939634773466    2.64356386277782   21.64611309539002
H        -0.81615742303776    3.01296006846408   21.91024441926785
C         1.19478361872625    3.82151111427290   21.73093823577751
H         2.16275123980069    3.45153444026504   21.38284446888587
H         0.84752826768851    4.62411159518074   21.07831985072124
C         0.56110653990970    2.90848668502944   19.13080194888877
C         1.87013938176421    2.93383311918582   18.66624390175673
H         2.59312118666446    2.25769843625000   19.10906313360556
C         2.22978637278427    3.80524498342143   17.65347506573460
H         3.24828192486624    3.82026995050938   17.29424309495231
C         1.28852992434991    4.65795425465593   17.10077466731946
H         1.56985370244242    5.33787777078117   16.30999194081577
C        -0.01735752582149    4.63454660983213   17.56086300073668
H        -0.75546062361869    5.29491703727142   17.12902972911709
C        -0.38134706408627    3.76075790837970   18.57031409233870
H        -1.40318273210426    3.73802753028582   18.92389891347583
C         1.30365795526462    4.28461896624143   23.15243455347066
C         0.43677528158925    5.24276503422824   23.66466572776401
H        -0.28011532576816    5.71862150580106   23.00939557094368
C         0.48435348592652    5.59083586059622   25.00338088329032
H        -0.19347587438397    6.33851742157008   25.38973348551063
C         1.39380505493467    4.97680420132252   25.84830320479145
H         1.42360019986150    5.24313313520873   26.89492366298846
C         2.26672580367095    4.02604602863833   25.34594533005125
H         2.97903025184022    3.54563004826510   26.00060495611486
C         2.22470036823493    3.68301217682985   24.00592484414451
H         2.90559524223808    2.94014001764772   23.60647312804949
C         0.24420330925125    1.60852393150022   23.75844905248178
H        -0.53358866400378    2.30711892177347   24.09690665844138
C         0.79470028359358    0.73846015457255   24.75291143525181
C         0.41085652645882    0.86826416136686   26.09318590189458
H        -0.34488717799810    1.60219672820512   26.32351804349159
C         0.99690005639009    0.10328966738134   27.07476472597895
C         1.99791782296049   -0.80050326857015   26.68589004438274
H         2.46792293849264   -1.38656061296165   27.45744171894853
C         2.41518490382429   -0.97381572178272   25.38399793804921
C         1.78813518997978   -0.19780148709373   24.37128642436598
C         0.62838171316698    0.20966036092364   28.54681577931875
C         0.12403341261280   -1.15312836808985   29.04147108571324
H        -0.74610766746131   -1.46227219782883   28.46633030394263
H        -0.15966554687839   -1.08991536232528   30.08988194989938
H         0.88743702670453   -1.91953981650992   28.94205970595459
C        -0.47024841051514    1.24589050560614   28.79820682134561
H        -1.38229485423997    0.98498886009059   28.26663861343313
H        -0.14854639917689    2.23774096452838   28.48951182511000
H        -0.69951338878573    1.28149842501739   29.86131555160636
C         1.86965501022663    0.62799705587470   29.34732526346775
H         2.66208429683624   -0.11071786503968   29.26823552071945
H         1.61616247727773    0.74249272005704   30.39915827170436
H         2.25026968448941    1.57769658654675   28.97782079302766
C         3.54475109766160   -1.91837750193029   24.99197380864126
C         4.09851584160526   -2.70101052437559   26.18768428349583
H         4.51544639553705   -2.03295431379214   26.93779120313873
H         4.89647675119828   -3.35788074947639   25.84762075267476
H         3.32797727536189   -3.31859000226493   26.64433023446515
C         4.68665088016850   -1.08174614727888   24.39264040193171
H         4.35045211162577   -0.52905448631498   23.51383841734676
H         5.50995241552911   -1.73209795369330   24.10237696855006
H         5.05400590204465   -0.36851578680797   25.12855814517318
C         3.04319487667109   -2.93264231661771   23.95333917520979
H         2.74505941901274   -2.43223423100317   23.03303236200798
H         2.19043849104584   -3.48515946762073   24.34532410458191
H         3.83445346109341   -3.64186558533741   23.71647180763784
C         3.50817064062721   -1.43789173212078   19.85822166242528
H         3.20592164078090   -1.12635066030024   18.84009918070543
H         3.49521559067310   -2.54195652391499   19.90104459663194
C         4.91114354609566   -0.90511287137401   20.16083927471950
H         5.59873000870144   -1.15224223905439   19.35632094737430
H         5.27474748621974   -1.33140889084263   21.09432350991459
H         4.84489807052602    0.17966051986589   20.27482893915144

