88
CSD_code = KEWVAK | q = 0 | S = 0 | Stoichiometry = C38H44NO4V | MND = 5
V         6.34852704889460    4.25033785276105    3.63288516723615
O         5.66482322264375    4.41669498526577    5.18666976717904
O         6.11172961885270    3.55162617754036    2.07709867411603
O         7.86683890303596    4.15235775592391    3.86474363178048
O         5.96439070772816    5.78988453138829    3.20255795538559
N         5.93546196051814    2.23131976911625    4.19861577286899
C         5.37756488692485    3.46971284684244    6.14462337300670
C         5.96278663564488    2.11586340567411    5.62245816523237
H         5.37670452424150    1.25757015343274    5.99038087227749
C         7.44681360294392    1.91520563975804    6.03574322130695
H         7.99221446714964    2.81824948804926    5.74640064534644
H         7.49558052459865    1.78229337362937    7.11739981911138
C         3.85104811128231    3.43292278165836    6.27095166018543
C         3.22408399343378    4.35199408359042    7.10741392149444
H         3.82499489335758    5.02350145795681    7.70288373614499
C         1.84472540036996    4.41825683285831    7.18118147854903
H         1.37819839728617    5.13570038038636    7.84045678867628
C         1.06430959644709    3.57366347182202    6.41053129602671
H        -0.01317508223900    3.62231498184655    6.46790724693811
C         1.67684943450894    2.67581096032001    5.55525864259465
H         1.07831693059525    2.02274582724193    4.93610857877005
C         3.05846764863917    2.60970222692715    5.48011475885799
H         3.50491927049438    1.91094074431551    4.78695975703198
C         6.01088794274510    3.81891805037977    7.48425804817834
C         5.64978598084729    3.13133178524017    8.63752884429681
H         4.89792287497927    2.35601655193209    8.58616509097486
C         6.24314555808107    3.44442945248567    9.84698904577978
H         5.95691438042239    2.90845788130182   10.74030421243797
C         7.20020291892337    4.44398690149597    9.91434482239309
H         7.65970920061193    4.68834252572851   10.86082770900292
C         7.56507529603459    5.12692562250568    8.76671269336365
H         8.31288783300971    5.90476684807842    8.81541982335817
C         6.97472931072627    4.81482342218832    7.55431833221269
H         7.25079277610469    5.33458188783007    6.64451052740729
C         8.00845631181834    0.72164959040259    5.32339263478235
C         7.87399071716134   -0.55651360252993    5.85356362967531
H         7.42463616918661   -0.68507502384405    6.82899584384179
C         8.30876151692066   -1.66219384092449    5.14368027369306
H         8.20025252937619   -2.65048886933591    5.56719957643823
C         8.87491133831527   -1.50357169619140    3.88950249763325
H         9.20531392100415   -2.36813327197325    3.33214804386198
C         9.02056477012174   -0.23385847692891    3.35611994072011
H         9.46200831043531   -0.10516073440653    2.37893783618591
C         8.59276272612497    0.87300060103627    4.06857933753192
H         8.70452583628881    1.86914740570350    3.65640845622716
C         5.83016525880658    1.19240551570504    3.46337934152788
H         5.63594180571141    0.21076403093486    3.91842205660406
C         5.98746794925911    1.21338574613541    2.04066922921792
C         6.02910410551105    0.01882596476988    1.31818862738413
H         5.87997613164828   -0.90204645328181    1.86305264548874
C         6.28403658696918    0.01140261938680   -0.03696442414342
C         6.50664084250192    1.24412552451811   -0.66151805627104
H         6.72501565890062    1.24702356571714   -1.71404455949622
C         6.47121960055172    2.45669596320980   -0.00040555909148
C         6.18851317418957    2.45783972395743    1.39034995577789
C         6.35014286307009   -1.31368119184282   -0.78344057044527
C         6.78302336913017    3.78048395710803   -0.68817974743618
C         7.03050337961955    3.62012055966742   -2.19223914121845
H         6.15660376441720    3.20908442690062   -2.69308844989901
H         7.88906256528703    2.98146536809127   -2.38599083234341
H         7.23805007612429    4.59587853231570   -2.62667984033075
C         5.61246606100286    4.75749716063091   -0.50365503200743
H         5.47401071933039    5.00472170658515    0.54776750852403
H         4.69091632239188    4.32097946574550   -0.88620372876088
H         5.80980860806406    5.67918779372948   -1.04832397222800
C         8.05361753879146    4.36486081319721   -0.04982259418427
H         7.92087756250220    4.51872075004881    1.02245656465257
H         8.29562038410536    5.31981319212667   -0.51315536980022
H         8.89255504279538    3.68706156367725   -0.19844127073564
C         6.33722570338677    7.10448952292130    3.24726346438138
H         5.77450755946003    7.67684230812493    2.48792441945365
H         6.06750973859915    7.49768236839590    4.24655210787071
C         7.84415880336740    7.25713823008840    3.02618669142619
H         8.16636445611512    8.26911240587283    3.25731909070749
H         8.09293726934933    7.02327216217932    1.99247509599326
H         8.35602177729308    6.54433332642573    3.67743011639202
C         6.60763442610159   -1.14183684759773   -2.28285989436608
H         5.82166611697371   -0.55332397091992   -2.75033461962041
H         6.62365677307694   -2.11942791285297   -2.76060892196955
H         7.56839029829704   -0.66635913525197   -2.46492949056329
C         7.49253003984049   -2.15279578443488   -0.19311787690384
H         7.33419823073629   -2.34578567059283    0.86422581793894
H         8.43875717536788   -1.62767777706249   -0.30394332388515
H         7.56411885610978   -3.10743614794329   -0.71023445128989
C         5.01775964996884   -2.05665354460891   -0.61257598934893
H         4.81520544231010   -2.27198605537916    0.43258111227609
H         5.04133685288729   -2.99933953837100   -1.15526505286500
H         4.19946854348091   -1.45471697650633   -1.00197322652074

