43
CSD_code = KEWVEO | q = 0 | S = 0 | Stoichiometry = C15H22NO4V | MND = 5
V         6.01897133038318    7.94578367149499    6.72407000043920
N         6.18057692212918    5.92647567017901    7.30781151816582
O         7.17290331605421    8.05006449287210    8.01602265688777
O         5.54848743328272    7.16099374288803    5.16045610545077
O         6.53170810286198    9.31605640106720    6.03236666901923
O         4.66935905462402    8.07413947366592    7.43630523740251
C         7.20965503386549    7.11667552513450    9.01597890408557
H         6.32630660502396    7.24749662260535    9.67005392474265
H         8.12067885802568    7.23301025386821    9.62156589781265
C         7.12019318928811    5.71419616644553    8.36791378233528
H         6.74635061666636    4.97706850434612    9.09899811164592
C         8.47205946595037    5.18101330731867    7.80042535754267
C         9.06893214095323    6.15294231720274    6.78043903770819
H        10.00075588902859    5.74843249332136    6.38734949389858
H         9.27669503531585    7.11775380110314    7.23937398689034
H         8.38074436572767    6.30907033730320    5.94561724183853
C         9.46052874343142    4.96389131635140    8.95086027751789
H        10.35713477428112    4.47536447136895    8.57589700075179
H         9.02471806745037    4.33251829592106    9.72243868610584
H         9.75849159871624    5.90525217487399    9.40364360789221
C         8.22368839015818    3.82922374002247    7.11898278860172
H         9.16365351294917    3.42347408270198    6.75120249699519
H         7.54793975270394    3.93276466642605    6.27174433128655
H         7.79775483764186    3.11315585858109    7.81978890223156
C         5.30910352553972    5.04755527060221    6.99562171507545
H         5.22872182569280    4.11895110871031    7.57652393199424
C         4.45102641470427    5.17207659740811    5.85894525122504
C         3.47376872086469    4.20572448498943    5.58430017219629
H         3.32049506752021    3.40618588140999    6.29604604470073
C         2.71769415054446    4.26830505146007    4.43896593013625
H         1.95986046312147    3.52596402706399    4.24184161303761
C         2.94272496216027    5.29690192270083    3.52330618044751
H         2.35417934500381    5.34241939525909    2.61835258630594
C         3.90112191447133    6.25277835049644    3.75727075278491
H         4.07487397430387    7.05386539634905    3.05301800923231
C         4.66662615141184    6.24213229862384    4.94334374769138
C         6.33915395694107   10.64639827538090    5.80031719301519
H         6.37357137036162   10.83043800344654    4.71059758815263
H         7.16493062905655   11.21138042835639    6.27086169027476
C         4.99556417430943   11.09656650573253    6.37527274285542
H         4.83704623554982   12.15892051199855    6.20759214832010
H         4.98545791779913   10.88027152168997    7.44491895981862
H         4.19769216413315   10.52134758125343    5.90299772548699

