109
CSD_code = KEWZIW | q = 1 | S = 0 | Stoichiometry = C48H46AgN10O4(1+) | MND = 4
Ag        2.03212604906742    3.46182653687544    3.98855168042354
C         2.59931907058531    0.47667767121664    2.12101808656156
H         2.64567826059281   -0.43509408804903    1.51888960222240
C         3.90126447085548    0.60620181858686    2.95553931165983
H         4.70885631033879    0.09306949728360    2.42853328076432
H         4.14159037405734    1.66270188355052    3.08268326226616
C         0.85835522745623    6.80412018689599    3.45095627540869
H         0.60197388473055    7.83366285530798    3.18663783649693
C         0.15489355064747    6.42765997374444    4.78418854898905
H        -0.72650945590486    7.06038726511211    4.90933744011436
H        -0.13222787360533    5.37566634607413    4.75420363544930
C         2.26733534410523    1.55385665540568   -0.10870994711153
C         2.42691103470956    2.83779737805986   -0.57321256765459
H         2.32582827317492    3.17855887456706   -1.58264499121226
C         2.76479366670563    3.61019403339638    0.55081603020455
C         1.91372847193701    0.31511729109621   -0.84517544758147
H         2.69654200870923   -0.43763009362224   -0.75517425215116
H         1.78747755574056    0.54989884849372   -1.89819118189587
H         0.98103291163336   -0.10831097767880   -0.47291991869175
C         3.12378903962012    5.04980923124128    0.56146503976579
H         3.35266399325580    5.36198080367478    1.57430060818033
H         2.30819485366717    5.64883336130927    0.16172249538466
H         3.99875762563347    5.21229879201066   -0.06648528236505
C         0.65684867725147   -0.76206092077094    3.10256001775067
C        -0.19943672517476   -0.50174404884764    4.14848608822919
H        -0.96439572133096   -1.14579216218631    4.52975724097703
C         0.13219041546761    0.78197547915916    4.60983674244428
C         0.75732637576458   -1.96768880099649    2.24642346666230
H         0.56027486580163   -1.73040032773982    1.20170379820528
H         0.02464914449007   -2.69879686830430    2.57546611857510
H         1.74996643120085   -2.41279656102414    2.32062755740108
C        -0.49073447010212    1.54647475863753    5.71624616664986
H         0.07796271184523    2.45483870488774    5.89797526070145
H        -0.51414310189626    0.94334034159461    6.62201117297295
H        -1.51589900566110    1.81018234133481    5.46033328431032
C        -0.12649530517722    6.32746794953910    1.20513487573523
C        -0.60518705201914    5.18809055133296    0.60309749292578
H        -1.07896024774534    5.11107949727435   -0.35341481281612
C        -0.35606714605411    4.14453883730097    1.51046317136616
C        -0.12370707393145    7.72896183510510    0.71710873914185
H        -0.68793703402573    8.38196604699320    1.38249861553472
H        -0.58509549446879    7.76508736100315   -0.26561438726886
H         0.89271133262496    8.11333922238747    0.63394322997898
C        -0.75714222654758    2.72394991351738    1.36078996389156
H        -0.32592651870824    2.30034424770772    0.45613421633612
H        -1.84110010272056    2.65638611153695    1.27978112958987
H        -0.43108373119801    2.15949224412253    2.22749739741066
C         3.13462144777097    7.83857352860055    3.55478984437095
C         4.37117875327078    7.36764972740794    3.93412338938687
H         5.27751774919622    7.93086083757710    4.01542734469692
C         4.20141997286151    5.99780158783112    4.18947348568910
C         2.72700970746294    9.21158379736387    3.17465364938772
H         3.59331929600608    9.86499230987160    3.22093312683338
H         1.96927013290695    9.59033474670029    3.86161826788007
H         2.32663557179387    9.24203396332492    2.16212584493338
C         5.22080302503330    5.01583583034634    4.62944391443895
H         4.73987465308658    4.06868360817412    4.86148572407299
H         5.73945959454041    5.38606218968107    5.51220915207591
H         5.95934725859996    4.86123429357412    3.84395800931921
C         3.63169401240544   -1.35957261793318    4.30885712964164
C         3.44446722706442   -1.96524345242579    5.62464709456765
C         3.43682331026779   -1.14826681452937    6.77337740485297
C         3.57292998697192    0.25245802710005    6.66705645391697
C         3.66416305034610    0.88424897076717    5.35464795824357
C         3.30124209919596   -3.33510519676872    5.74415430446717
H         3.31820146491285   -3.94054288291757    4.85069836413331
C         3.15171395727578   -3.92051044842737    7.00280844909617
H         3.04088313253797   -4.99107493751115    7.07895958811967
C         3.15796141574134   -3.14537182256442    8.13493281404632
H         3.05614599552034   -3.59964347116131    9.10933835080228
C         3.30494342643995   -1.74453337712687    8.05297995567121
C         3.33838578019452   -0.91568143668298    9.19362740351609
H         3.23680404697695   -1.36940135569623   10.16822440740667
C         3.51090140981159    0.44043817175310    9.07113752279369
H         3.55315493782266    1.06102034294025    9.95326757403742
C         3.62933374399553    1.02684110120008    7.81101084984129
H         3.78225393551767    2.08831964639543    7.70061071867824
C         1.34720696944178    7.93057612159334    6.22856151961047
C         2.28899139994822    8.13668025077999    7.32622257465662
C         2.78934992138079    7.02500299979007    8.03403586449443
C         2.41580624924957    5.71171633622880    7.67768086037727
C         1.55607045573561    5.48150679617202    6.52294063470001
C         2.67356947733088    9.41647647847727    7.68026973948417
H         2.27311683757862   10.25260511571165    7.12747444060209
C         3.55733604402720    9.61774055227121    8.74231961144509
H         3.84816947508727   10.62293143569875    9.00550432900669
C         4.04252758484793    8.55056563217394    9.45526330292565
H         4.71401964116067    8.70794092659487   10.28628870455667
C         3.66973247953645    7.23017326744735    9.12624655550906
C         4.12826231085714    6.10775638604404    9.84699542166862
H         4.79908277546924    6.26381282700844   10.67866340372313
C         3.72121701585591    4.84109951353868    9.50881551637651
H         4.06582859151425    3.99289652651714   10.08071853600441
C         2.86580618095551    4.63972040988105    8.42566005022473
H         2.52488426482367    3.65337091378686    8.15395684572239
N         3.76172026558776    0.02398231864840    4.27203687318612
N         1.02582647938562    6.61326128090130    5.92320449890025
N         2.79432077417668    2.85132638041431    1.63378288256906
N         2.49763794673425    1.60022431694274    1.22946154681833
N         1.13021039129926    1.27098991932489    3.89182838545666
N         1.44397968460521    0.33801604609347    2.97208723595980
N         0.24755326992730    4.61316152978573    2.58996631967003
N         0.38255741854169    5.94104826394384    2.40418098407641
N         2.94038514160867    5.65647843745895    3.98024067461959
N         2.29339403307103    6.77159573730126    3.58819670511683
O         3.67001497278770   -1.98889869919202    3.26688050824236
O         3.67864285521482    2.09846508467018    5.18894532816875
O         0.84913200365962    8.83152760457850    5.57754551760818
O         1.28469334808635    4.36520452441609    6.09367044030630

