55
CSD_code = KEXGIG | q = 1 | S = 0 | Stoichiometry = C22H25ClIrN4OS(1+) | MND = 8
Cl        9.15699600692633    4.03267504292794    4.06355520623390
C         6.25028950427934    4.39001020088634    2.47184944276602
C         5.03410701654792    5.77400853198231    3.89662786321945
C         4.83908678741926    4.44369447165433    4.33197070799268
C         5.64795525115101    3.58000175083214    3.50199457251661
C         5.92953244419410    5.74568264949784    2.74884264599298
C         3.89718866886874    3.98499613607447    5.39217522010383
H         4.27517358039727    3.10620676138159    5.91073698344189
H         2.94449100699119    3.71801117709854    4.93275489516497
H         3.70873986767279    4.76713576856695    6.12331243598219
C         6.98975056847252    3.84874497138611    1.30023943746672
H         7.87367651347753    3.29930171786277    1.62125273426364
H         7.30357434492956    4.64272181317536    0.63006073668364
H         6.34658632155386    3.15883841630770    0.75436115082158
C         6.23847771775452    6.91865221660492    1.88132862603625
H         6.30323080378029    7.83475104510979    2.46352686916020
H         5.44519255747485    7.04073263982141    1.14252535549309
H         7.17921046359518    6.77883209111749    1.35537932167630
C         5.60402258452943    2.08941524069076    3.46448542841374
H         6.58879617004858    1.67852065903176    3.24993028577687
H         4.93526138639857    1.77340768758065    2.66210617838804
H         5.23081598261722    1.66957625594185    4.39516921039931
C         4.30479183926096    6.98211643074062    4.37584860982806
H         4.92077297749923    7.87399406977629    4.28757103377557
H         3.99198844790351    6.87423380982057    5.41151856612230
H         3.41191918941147    7.13043636272461    3.76705215568524
H         8.20300024901983    6.73506855505262    8.52993434061477
H         8.87627757055209    9.18946406701588    6.32226898630916
Ir        7.05894000286592    4.98287053266686    4.46920798906735
S         8.07678193582245    7.13488284174474    4.96321805798686
N         7.45220630735051    4.33618826569658    6.42351057948655
N         7.76448134307947    4.51494871886641    8.75968557445734
C         7.72742664967596    5.03547470311439    7.53912394471144
O         8.71721277501438    8.14329002344811    9.29827214924649
N         8.66696704241195    8.52346850878112    7.05645575514157
C         8.90551944115579    8.91521369814563    8.37487727747857
C         9.40104925735056   10.28487282663394    8.55080772046878
C         9.28473831768675   11.29010410798787    7.58617105382218
H         8.78056286173285   11.11586490691265    6.64615171054630
C         7.33186807794579    3.00691255497186    6.58351385157169
H         7.19590408833688    2.43096986442887    5.68013129589771
C        10.00490894466950   10.58149006623967    9.77739601061337
H        10.07921670015313    9.79998328304756   10.51786023532170
C         8.24665325688070    7.29955516895027    6.61476900769478
N         8.00986681868723    6.37530248829286    7.56239578981400
C         9.77864432026088   12.55369928580867    7.84625679812155
H         9.68104921485609   13.32849381930998    7.10161545221071
C        10.50272217816306   11.84495219080137   10.02520892140358
H        10.97324335411162   12.06161669608999   10.97130114461342
C        10.39399561812038   12.83230272329891    9.05823867531361
H        10.78080193154014   13.82130354413751    9.24874637263267
C         7.40250260112360    2.39076026075937    7.81488156001121
H         7.31290748408764    1.32275366458730    7.91012155974538
C         7.59436947638346    3.22189822252472    8.91560329475105
H         7.62995417798571    2.85519649182952    9.93119921753804

