60
CSD_code = KEXHIH | q = 0 | S = 0 | Stoichiometry = C24H28Cl2N3ORhS | MND = 8
N         0.63754481273274    8.04415732452378    1.87129917500784
H         0.12188889702168    8.94955580216314    1.90708898721848
N         2.12500405648744    9.36919118475012    0.70837568360226
H         3.02196652721124    9.42197160174421    0.17656784508674
N         0.25329186693559   10.57091674999341    1.44165531915053
O         0.65201430369590    5.80435617340434    2.29639444362563
C         7.22368210706636    7.24245954495672    0.07799684021185
C         7.15020362884892    7.04855462424000    1.49013536414120
C         5.78479938696676    5.46838858852236    0.46636427052660
C         6.38357517438527    6.24823251456225   -0.55646948491695
C         6.20734210231156    5.99862020238454    1.74006252158376
C         8.17136845636503    8.14823183458524   -0.64009414539129
H         7.73769460322084    8.50740392361949   -1.57124852279589
H         8.43044194194212    9.00767215797483   -0.02597968886818
H         9.08672795621396    7.60203877667098   -0.87731466565195
C         7.97428592051971    7.75921281346713    2.51218889238562
H         7.50864663546458    7.70625568914905    3.49282380633733
H         8.96036096779775    7.29340641067073    2.56617597645681
H         8.10212851226096    8.80801417797257    2.25190343086173
C         4.93812528221494    4.24971822891032    0.30749066820525
H         4.01005962435624    4.34335902484451    0.87163688606432
H         4.68856193799319    4.07553692347670   -0.73548780076298
H         5.48050955056003    3.38345211762790    0.68881714649944
C         5.90113403122759    5.37508814993894    3.06288945916083
H         5.97056491586972    6.10703124930593    3.86396492216367
H         4.89705264315828    4.95679811116067    3.06466783206284
H         6.61258012940510    4.57163748387204    3.26468035137101
C         6.32337008166113    6.00750085780755   -2.03033889398823
H         6.24901091840340    6.94755175618319   -2.57389226472545
H         7.23212081494521    5.49730570485642   -2.35516746767161
H         5.46469275888753    5.39487680312799   -2.29294924605596
Rh        5.14696355789016    7.57659770976624    0.68942477809180
S         2.89912236778558    6.89314969731168    1.10359628754492
Cl        4.56958835073180    9.08385376620985   -1.01311416326533
Cl        4.82243260042696    9.27534655077107    2.22808192829817
C         1.83050993452125    8.17303471508245    1.23623270140630
C        -0.41747515389744   11.71418900332502    1.55383142832099
C         1.43325318405243   10.55516832251673    0.82125431735382
C         0.13195196993878    6.88661489080050    2.43028031437270
C        -1.13200070322861    7.10129960224625    3.18301233476843
C         1.30516731475614   12.89060583124161    0.38366325220180
H         1.70972162961826   13.80311572641450   -0.02765089416840
C        -2.03316411177518    6.04185460311278    3.25601361912350
H        -1.78431145983391    5.11702388855457    2.75792899148541
C         2.00075083736374   11.70576410338222    0.26516957927170
H         2.95573530446436   11.64317412486847   -0.22913068633866
C         0.07844434592074   12.90206628586508    1.03675130172689
H        -0.48465701130210   13.81571514756023    1.14222883071288
C        -1.72421159298548   11.65094016359559    2.28045435921086
H        -2.40948017930085   12.40469258158642    1.90243684547434
H        -2.17104727982213   10.66555338582046    2.17521324285925
H        -1.56231183502322   11.84050152404966    3.34159820497088
C        -3.51070186509421    7.37659543991202    4.58833446127401
H        -4.43673599661926    7.48770802710114    5.13263054084879
C        -3.22051812130591    6.18214590972704    3.94900684127958
H        -3.91866932995687    5.35991345472828    3.99534970032376
C        -1.42059841509611    8.29468148355487    3.84047392677127
H        -0.71117901196280    9.10860569234918    3.83651121720767
C        -2.60678803897005    8.42578684322091    4.53997042857428
H        -2.82664183724631    9.34990501884048    5.05400866927810

