111
CSD_code = KEXLOR | q = 1 | S = 0 | Stoichiometry = C56H47ClIrN2O2P2(1+) | MND = 6
C         6.72140981651855    6.23897690434094   10.80180704338296
H         6.96273186475127    5.49555458049104   10.04213542373945
C         7.56376779606994    7.28223889824451   10.98389841784116
C         7.17932327125745    8.25860805505847   12.00416453297911
C         5.95962900817187    7.94212893399417   12.63555731200334
C         5.49141146731415    8.82352359034733   13.59514746923222
H         4.55626521132808    8.62948051974921   14.10252305110148
C         6.19928606457047    9.97364200659444   13.92070692172291
H         5.80853581848696   10.64710837661365   14.66927577959968
C         7.39992439025813   10.26198000304484   13.29648705410108
H         7.94856499342487   11.15460673388284   13.55711176016416
C         7.89484067754291    9.40041782430443   12.33374299276323
H         8.83641868373177    9.61436447889330   11.83904555924667
C         7.32207434421961    4.66895538702778   13.47679801932279
H         7.97696910126649    5.13419242728559   12.75307735789619
C         7.80884994544412    3.67175799587928   14.29553837082759
H         8.83844675478042    3.36865260245615   14.20440743268995
C         6.93809273749341    3.07128959440594   15.20911889441281
C         5.62660025911508    3.55241269760495   15.25470487174488
H         4.94731956291518    3.09632305890253   15.95360604424797
C         5.22078377374845    4.56275172526799   14.40103458948204
C         3.86410606560462    5.11916641610716   14.41757035115369
C         2.90225364571170    4.75567211263204   15.34506295563817
H         3.08836895334816    4.00986726982604   16.09802675107996
C         1.64049740041540    5.35834371789581   15.32032568667362
C         1.41609130031654    6.34841676551042   14.35920388929572
H         0.47951316186421    6.87505811948243   14.28785796097907
C         2.43192592293941    6.64668820683305   13.47486594540724
H         2.28906447769933    7.41467266844204   12.72622340792265
C         8.54607611755651    1.53178395783334   16.02958054186270
H         8.77916620407327    1.10767023888065   15.04930385835126
H         8.54193483196922    0.73896836191916   16.77466852680531
H         9.29836463274175    2.27859822165961   16.29837004765817
C        -0.53382493398937    5.50915419337985   16.25925646845375
H        -1.06088694886782    5.33426797973264   15.31748186097675
H        -0.49332850687026    6.58204881898195   16.46643772377504
H        -1.05986792508056    5.00489181719487   17.06718158791285
C         9.07495718377471    6.27637827375567    8.68394528346005
C         8.89011786528796    6.60219433900376    7.34624557834470
H         8.74240742639097    7.63080457160599    7.05059215698016
C         8.90378307516102    5.59842780883258    6.39335243765358
H         8.77001067724136    5.84898965218095    5.35237371180511
C         9.08961785223890    4.27898729137487    6.77119352485408
H         9.09449353248296    3.50055907549459    6.02382642808722
C         9.27563441901755    3.95420582289976    8.10656917510428
H         9.42218931064974    2.92583785908486    8.39894280565565
C         9.27383410926665    4.94979551957573    9.06427129889462
H         9.42958351905478    4.71009746631196   10.10801610750532
C         9.04894387605984    9.15345898089289    9.23542907701138
C        10.13820939592350   10.01377295880740    9.30461974808279
H        11.04056002818394    9.71068947512140    9.81720674280174
C        10.05201374529574   11.26481544911735    8.71894883769816
H        10.89444118283376   11.93756653227371    8.76866280531741
C         8.88831802298542   11.65621019353795    8.07577232727510
H         8.82761750507857   12.63534265101250    7.62623024352935
C         7.80191061122360   10.79679388649367    8.01063032112874
H         6.89494750677233   11.10380192997915    7.51256858153049
C         7.87846328982036    9.54418510846004    8.58925612338015
H         7.04141396814286    8.85902783259056    8.54569945159091
C        10.55508941882339    7.26812665740372   10.95132670860860
C        11.76414092313945    7.14748371567200   10.26854325133394
H        11.77813098823355    7.20954722163880    9.18816509858537
C        12.93255656457885    6.94485840689385   10.97853310506853
H        13.87191500759884    6.85539851344373   10.45479152751208
C        12.89609936785822    6.85484236454821   12.36234449156961
H        13.81047723227192    6.69759291746195   12.91338515129421
C        11.69141272798905    6.96222625291553   13.03866795584796
H        11.66684205148344    6.88828794445918   14.11523722660966
C        10.51569866615265    7.16776492774020   12.33768334260778
H         9.57236815602022    7.25718069399830   12.85787526112578
C         3.56209736990598    8.96165590064274   10.63241355740997
C         4.65448526697293    9.82356608413642   10.56372037440042
H         5.62505458433856    9.42618912194023   10.30928205953182
C         4.50564889725920   11.17091990130093   10.82781863721677
H         5.36182143569223   11.82632232058455   10.76708114082044
C         3.26321487721383   11.67490517443971   11.17877777068688
H         3.14466111816823   12.72661861087055   11.39030987715697
C         2.17380442992011   10.82462182481589   11.25904366712251
H         1.20399201222605   11.21315377496905   11.53218394139645
C         2.32002806531786    9.47423420203100   10.99066963613334
H         1.45715512131098    8.82427918160572   11.04473021649405
C         2.18512816878601    6.55804021342939    9.97197429785009
C         1.48650600008132    7.19454921332276    8.94584205117845
H         1.93632113609356    8.03106022879748    8.42829550437997
C         0.22474973494041    6.75898659994191    8.59171683119543
H        -0.31159925469463    7.25603566146870    7.79720098624612
C        -0.34921244516605    5.68173020202047    9.25027151760685
H        -1.33425164226406    5.34091836401122    8.96918514990287
C         0.34790672048148    5.03794495872387   10.25739269729067
H        -0.08853061814119    4.18763473691937   10.75998509103295
C         1.61259924864093    5.47179989664765   10.61876896203876
H         2.16772239590997    4.94139637328156   11.37584248190123
C         4.56525837911553    7.07901535239142    8.69405903767900
C         4.70548950426072    8.15656043608771    7.82802622514833
H         4.41350731457631    9.14991903462789    8.13965116202682
C         5.21421515908119    7.95652504690521    6.55432811185066
H         5.31876956307110    8.79640061626820    5.88274623113943
C         5.57812133531875    6.68780679745734    6.13789693262911
H         5.96769113332566    6.53906403019416    5.14209446357582
C         5.42259170717017    5.60776998806593    6.99311954841147
H         5.69122794507753    4.61475403267750    6.66507570030573
C         4.91395076282491    5.80014333324612    8.26302131105249
H         4.77237923172553    4.96474657695895    8.93482176869803
Cl        4.45823255003514    3.91860846090116   11.30831242865761
Ir        5.12898542091714    6.16498202569325   12.03549521493729
N         6.06861912005273    5.10909457105071   13.50130464516718
N         3.61521798236102    6.04836625080894   13.47507129633163
O         7.24440377865400    2.08185290177130   16.05395299830403
O         0.76030133482158    4.94105442413985   16.23695237593192
P         9.03835468287811    7.51438559147200    9.99661776921451
P         3.85528132282285    7.17850042813079   10.37533397963835

