39
CSD_code = KEXLAB | q = 1 | S = 0 | Stoichiometry = C14H16N5NiO2S(1+) | MND = 4
Ni        0.80486439489483    4.31584543661243    7.28443483301556
S         2.66767058066236    4.10969694876342    8.39456990820100
O        -0.80462734749529    4.54229939721016    6.31342629679203
O        -1.02393557889575   -0.54290032193672    4.98228948349865
N         0.97033558796133    6.19381548743728    7.35981364103307
N         3.61855960754309    1.71050561106117    8.97169901416167
N         1.64656689140357    1.72685815492648    7.80533637007151
N         0.69054806263787    2.46018878800684    7.23503545675817
N        -3.59552233891498    3.20285008456298    4.62702515175829
C         2.62725368477082    2.37998470102598    8.37884478917110
C        -1.40362285656938    2.24714635522376    5.99361388185806
C        -0.26083855008176    1.75368594862521    6.67294984515446
C        -2.36396915818711    1.36145181836714    5.45007043877599
C        -2.22937609030900   -0.13496228348056    5.58842410152341
C        -3.43943341966873    1.87160817705396    4.76778745156567
C        -2.99779708567568    5.55205631022563    4.92961434768932
C        -2.74386541672959    4.10185557424439    5.12498011839736
C        -1.60065456583428    3.66400352561520    5.84270385092478
C         0.43869371031540    6.87599050810226    8.37390855455750
C         0.48730408931138    8.25759689444781    8.43864715483333
C         1.11077240585596    8.95552366981899    7.41579737285487
C         1.65883891668085    8.24011116097679    6.36242240020038
C         1.56824324322155    6.85893862966933    6.37185219012768
H        -0.12375330237538    0.67930395756855    6.72185139999014
H         3.62067469364847    0.70512376610610    8.96081152471792
H        -2.24018750749507   -0.40120952635019    6.65727602809888
H         0.04981949723764    8.77253414933225    9.27868411533847
H        -3.09097780032101   -0.61528289547850    5.10828833346640
H        -4.19197131333701    1.24222010901640    4.32289556827676
H         1.99414689889307    6.26613534536023    5.56924315143341
H        -0.03161370435012    6.29643603947690    9.16126867552624
H         2.15547249905788    8.74100895025660    5.54709612128969
H         4.37690507157411    2.21034308931425    9.40154866892303
H        -0.98629550270358   -1.50487444006791    4.95559348842994
H         1.17187127343132   10.03242927504946    7.44140083665507
H        -2.07991145239555    6.04216226143151    4.60877163051215
H        -4.40080762154694    3.54599165754511    4.11179425120568
H        -3.28309090383760    6.01040608982110    5.87715776589094
H        -3.78278959238008    5.72932159505224    4.19927178732707

