48
CSD_code = KEXMAC | q = 0 | S = 0 | Stoichiometry = C19H24N4Pd | MND = 4
Pd        7.54715530538580    9.74671265960915    2.28671828609959
N         7.01501542661215    8.06264401066963    3.19854368573899
N         8.88273252878078    9.83524859598740    3.75613597162613
N         8.17994884173126   11.54737675344166    1.55002290934285
N         6.04368926368996    9.52654849902179    0.91745779580248
C         8.06301463240427    7.60904354115884    3.99157403602765
C         8.23297136925206    6.29196284253414    4.40872995799478
C         9.35664610942817    5.91942395775756    5.12861605746467
C        10.33496005814680    6.85059712362449    5.42419068317083
C        10.19980092124472    8.16320117147465    5.00180473567147
C         9.07115530841062    8.56745925010480    4.29441168289415
C         9.23690311915303   10.97925552924507    4.32125936714787
C         9.72838511092727   11.04193326266424    5.74893316193063
C         9.16716517881912   12.19536689484144    3.64654829105863
C         8.77158918431697   12.43372556785621    2.31970106615839
C         9.07449851806721   13.81212377009847    1.78085735078135
C         7.97329622617191   11.85828584860717    0.15292269876966
C         7.60210401363364   10.60386904291066   -0.63773086704665
C         6.16439877703577   10.15288126523413   -0.38032588536607
C         4.96209651899049    8.83178531939920    1.19249859825996
C         3.80123913159371    8.83725722628188    0.22581052374542
C         4.79268084733479    8.04984564138004    2.34723608119833
C         5.75287565291665    7.67096378207144    3.28196371423471
C         5.26545171252614    6.79499969782998    4.41280838150941
H         7.51729979461623    5.53883326776458    4.11926151374773
H         9.47670062189617    4.89012759227749    5.43282092995903
H        11.22359967806523    6.55312126148188    5.96107083639584
H        11.00651490948732    8.85857829431339    5.17157706905893
H        10.81672420170393   11.07305644696284    5.78585931919924
H         9.38285738706872   10.18318889731902    6.31982595212043
H         9.35543752466362   11.94994535075491    6.21803105865549
H         9.50860773336636   13.05699980695119    4.20078527773868
H         9.85435332287795   13.75926558779962    1.02071145685949
H         9.41986907470444   14.46791748468003    2.57396789321155
H         8.18927382444051   14.25221226494750    1.32390562564776
H         8.89304721941756   12.27608931087375   -0.28185853854464
H         7.17554013772732   12.60784830356446    0.03260597344163
H         8.28606222683730    9.78822462599535   -0.34982419019243
H         7.72450079572150   10.80766129538475   -1.70392637543467
H         5.88279569781034    9.44216627093269   -1.17096637872312
H         5.49496082366765   11.02373684763010   -0.45892898366152
H         4.06671018351774    8.30767625640285   -0.68950516022466
H         3.52705575536769    9.85638240052944   -0.04319939809634
H         2.93597183194948    8.34698115161073    0.66090892740528
H         3.80269476337689    7.64885955128612    2.50626312294325
H         5.21989710130251    5.75089608125357    4.10515214740982
H         4.26059141060282    7.10023163958628    4.69689086314381
H         5.91666022323786    6.87658875589303    5.27998277372416

