54
CSD_code = KEXNOQ | q = 0 | S = 0 | Stoichiometry = C15H34AsCl2PPd | MND = 4
Pd        2.72636901517869    7.32892777146121    5.42168961836148
As        2.52979025332310    7.19535424322193    3.06030757744246
Cl        1.32324362946371    9.08383544744851    5.69079948890353
Cl        2.75064825196593    6.89430801633504    7.63710915694056
P         4.35743654073068    5.85250491989900    4.84891616318826
C         3.99373669067493    5.83499862522279    3.02586610962890
H         3.65478655079377    4.84651483125209    2.70130761364442
H         4.85154775499065    6.12145751707835    2.41613287145758
C         0.85239507219948    6.06489594108953    2.90346353187126
C         2.86572701233940    8.33380197614869    1.38030381588080
C         0.90435684050174    5.08744918364736    4.07847584237798
H         0.97044268837612    5.63796046451774    5.03882771745624
H         1.75201192623951    4.40119996565388    3.99676950880486
H        -0.00621909330846    4.48811835820496    4.10884187650053
C         0.72831172117351    5.30879586638286    1.58659883179400
H        -0.11269492581421    4.61617392331131    1.62774696986006
H         1.63169812218707    4.73229994931145    1.37578876547768
H         0.55310011454129    5.99823396375592    0.76095871645755
C        -0.33545104065848    6.99849449340504    3.12501830226311
H        -1.24991570553940    6.42280700380499    3.26844180359081
H        -0.48301671139703    7.66635198077209    2.27692736595469
H        -0.16289049486225    7.60469122220868    4.02146320289874
C         3.24269872340937    7.51289167368242    0.15658748941114
H         2.42581115887193    6.86145866379168   -0.14614893646050
H         4.12194908755106    6.89873112994820    0.35278135065504
H         3.47452611037598    8.17587275846086   -0.67718674723063
C         4.01698252595530    9.25047126775620    1.78841960434574
H         4.91723893278107    8.66832335602566    2.00023829532265
H         3.73681351545363    9.81079070615807    2.68562484730236
H         4.24977684070532    9.96024366508547    0.99515432392398
C         1.62125657137029    9.17713835079343    1.12757972057478
H         1.84074543076583    9.97818799353162    0.42151229417918
H         1.28287767293611    9.62193592853457    2.06811466835617
H         0.81855687128459    8.56839873257124    0.71172946954555
C         5.97212221774000    6.77321325901609    5.08796130587945
H         6.45655344450874    6.26533854824801    5.93207935657129
C         4.69467477893216    4.08386042131886    5.32073129371340
H         3.77600307019386    3.54760256445964    5.04097302600023
C         5.63723257622662    8.20582412455853    5.52137714332276
H         6.55110543712935    8.76832109225433    5.70938925189328
H         5.04450369436499    8.20070246581051    6.44763602347462
H         5.07161813090039    8.72737046293051    4.73460428428893
C         6.92700056036769    6.77962938526641    3.89644926940420
H         6.55895731417296    7.43484500980941    3.10765649537594
H         7.07658736633201    5.78401037711831    3.48468685815058
H         7.89613862322746    7.16246052967294    4.21299663690438
C         4.84484861311127    4.01314868903852    6.83811542382997
H         4.77755482629402    2.98248945166591    7.18057326001050
H         4.06057660754918    4.59691078555025    7.32279770809829
H         5.80753040945913    4.41156857539654    7.15289881613498
C         5.87618104753199    3.45397634219689    4.59239308521690
H         6.81191369375121    3.90968456365557    4.90781990325593
H         5.77990660146486    3.55596883417800    3.51193128734596
H         5.92594333219263    2.39195462739383    4.82816834045171

