75
CSD_code = KEXPIN | q = 0 | S = 0 | Stoichiometry = C32H33BN6OSZn | MND = 4
Zn       -1.80731410902325   13.24530028364657   17.45899379405919
N        -3.81531636635031   13.30684216183032   17.06398084198154
N        -2.26632895286906   13.49432272837850   19.43099292015264
N        -1.66468261840848   15.21860603359879   16.93511999551923
N        -4.39760181816455   14.37556716632450   17.63403790135951
N        -2.97923532983384   14.60656894025026   19.66447589059606
N        -2.49501895950718   15.99904196312410   17.64264288523585
S        -0.07484285397514   11.88294222736398   16.81391220402485
O         1.83775055426683   11.61925346272262   19.32109106917825
B        -3.61121262348425   15.38191200475070   18.49763195031592
C        -5.72014132660024   14.35930676613373   17.38178510943039
C        -5.99433027508278   13.23251915735228   16.63125952755207
H        -6.94827446919222   12.93141195561171   16.24990509940912
C        -4.76152124458563   12.59214230477870   16.45219847144860
C        -6.67678809533306   15.39524195294313   17.85142176118670
H        -6.39014285588464   16.37920939082970   17.48544767050465
H        -6.70251827293369   15.43176241653795   18.93898835271219
H        -7.67215417715691   15.15948768289188   17.48482043449365
C        -4.49064990998106   11.34571524052388   15.74845709179016
C        -5.49453792914822   10.38485698163577   15.62625487970753
H        -6.46485264663880   10.56696675888541   16.06375933289474
C        -5.24857440367713    9.19436894741944   14.96951746596220
H        -6.03364538983604    8.45685760215022   14.88467830101087
C        -3.99889863917254    8.94231188221580   14.42702404895296
H        -3.80805289450254    8.00895221498562   13.91826973538864
C        -2.99684510608505    9.89153792667484   14.54066895095747
H        -2.01842010247314    9.70449947437823   14.12523623607314
C        -3.24103768136387   11.08616886895910   15.19058962420782
H        -2.45629426831814   11.82543435276795   15.25962978721359
C        -3.10484681525829   14.79560441070408   20.99114810939407
C        -2.44626202331518   13.76086082202032   21.62939543697004
H        -2.36511336429181   13.59884960241777   22.68459704436551
C        -1.94265629647953   12.95064233261328   20.60466551539828
C        -3.83168222798847   15.93853550976828   21.60238553838443
H        -4.88420285738732   15.91855153825171   21.32532414180771
H        -3.41243362750739   16.88522557091788   21.26683209288847
H        -3.75228627801928   15.88161688897444   22.68452814281944
C        -1.23629011705494   11.68100925176634   20.71130543415289
C        -1.46030251943610   10.67443725268946   19.77351763578714
H        -2.16402746481901   10.83695923648530   18.96778282587154
C        -0.79910097977202    9.46497027520825   19.88079917775705
H        -0.97398488497105    8.69561519638405   19.14344137568333
C         0.08284900307295    9.24331388518377   20.92618229876587
H         0.60006820149601    8.29894242599839   21.00660851801346
C         0.30128895018897   10.23567853387167   21.86741392539678
H         0.99048781124496   10.06633326161935   22.68105234163910
C        -0.35394425206662   11.44746267128555   21.76356541767074
H        -0.16968037713851   12.22785798193517   22.48710819355983
C        -2.21522836731437   17.29389840992405   17.40759906603100
C        -1.16134811363348   17.34263332815588   16.51327163621119
H        -0.69866494238530   18.21633165714805   16.10212753768618
C        -0.85307730771769   16.00803587682968   16.23026257441706
C        -2.94137289147333   18.42992054336590   18.03198569070180
H        -3.99591785627785   18.40753671884640   17.76350585156858
H        -2.51098754387502   19.36704455940820   17.68961338737637
H        -2.86822771037382   18.38356614888131   19.11695516673383
C         0.13367397347193   15.48036619559828   15.29569546733135
C         1.38696506708442   16.07768704392956   15.17745964397221
H         1.62937523492381   16.93202970565211   15.79308943524542
C         2.32217807988799   15.56274950410567   14.29963452143819
H         3.29530044877640   16.02512778500458   14.22040698778562
C         2.01652806341221   14.45215568280058   13.52963717524110
H         2.75258165673664   14.04736734457175   12.85098185089704
C         0.76610021195012   13.86510275330465   13.62810367714092
H         0.52295124650015   13.00265708003826   13.02617226953986
C        -0.17440993846981   14.37801511249363   14.50101982011606
H        -1.15822975048254   13.93587878372015   14.56481227137806
C         1.39146925309254   12.86071663972772   17.28434058411462
H         2.23489670487697   12.35630690797115   16.81080578790223
H         1.30207389594010   13.86856955314893   16.88252214636644
C         1.58475544045153   12.89054575086801   18.79350798327999
H         2.45268359081682   13.50906505431119   19.04432974924701
H         0.69078656643113   13.33667856516710   19.26527688758067
H        -4.32844045378439   16.22365994765481   18.90360125317208
H         1.18448832626678   11.01777784956387   18.93253707807188

