79
CSD_code = KEXPUZ | q = 0 | S = 0 | Stoichiometry = C36H33BN6OSZn | MND = 5
Zn        5.05648501720032   12.33056867015164   12.79901925327856
N         6.99406240545014   12.90133256958511   12.57112677044196
N         4.86328940572572   12.19335674378245   10.73647849835360
N         4.37025527254652   14.23257644371835   12.64501286904651
N         7.19997156535649   13.92136426538550   11.72911968855142
N         5.50124341661841   13.17397142973157   10.07738635434069
N         4.96750801553468   14.99234907209452   11.71910285202752
S         4.26180444767328   10.48970277019187   13.92299605782014
O         5.46080002975058   13.03631542902402   15.02651963510953
H         5.82930577572494   13.81642560344609   15.45607674056863
B         6.05855975326723   14.39852451738972   10.80677218839095
H         6.44680242666732   15.20806777176141   10.04314197921966
C         8.43225329432514   14.42666543228669   11.91930100504633
C         9.03154733825689   13.70686982010536   12.93838311133890
H        10.01860474859946   13.83879524259732   13.33272499287015
C         8.08499912801847   12.75012428691342   13.32026227308124
C         8.99134923708657   15.56412589131442   11.14293170152449
H         8.95178824004426   15.35764377697681   10.07537358779178
H        10.02533825560910   15.72972997078535   11.43327333884847
H         8.42395323469099   16.47432999348825   11.33111376692093
C         8.13967047148678   11.74755209683985   14.37858214897234
C         7.60879894553626   10.47662307975413   14.17596336230781
H         7.22325967674940   10.20813516573944   13.20290470045389
C         7.57821460847386    9.56256781883562   15.21263468228723
H         7.14718952790477    8.58640872668279   15.05022245579160
C         8.08112733439688    9.90268866281850   16.45681386435697
H         8.04095933058493    9.19337386030214   17.26977324386386
C         8.63542372771623   11.15581345058893   16.65793785655207
H         9.03353136811635   11.42198580522060   17.62648258422759
C         8.66809301823973   12.07382752799955   15.62522638384406
H         9.08264212905105   13.05958973762705   15.78585951863742
C         5.58463545169872   12.86621182439310    8.76901385231894
C         4.97882954627610   11.63810871331948    8.58553662602118
H         4.85535555212267   11.10599669785136    7.66450699848443
C         4.53136700973343   11.25185114028008    9.85454688669509
C         6.23173752099366   13.73176833204968    7.74841371139233
H         5.75237915848008   14.70817199182447    7.71044210603626
H         6.15115752132772   13.26176631674464    6.77202412941925
H         7.28452909281787   13.87997557644737    7.98232730855904
C         3.79107860180711   10.04916868950090   10.21783383589627
C         2.72562830419436   10.11650215516894   11.11046226564974
H         2.44368311734707   11.07247991764647   11.52502491675694
C         2.02624439352583    8.97402668134560   11.44866875533258
H         1.20790322742429    9.03473092548170   12.15008476713143
C         2.37601835429253    7.75475703797041   10.89380899151203
H         1.83151859732514    6.86111274717514   11.16169436634975
C         3.42506472499726    7.68211862988975    9.99231349111180
H         3.69845652204091    6.73208057117149    9.55583375157211
C         4.12865307070333    8.82209814276016    9.65282960173446
H         4.95638859269620    8.76448997751600    8.96059528774754
C         4.56062309683921   16.26893460404827   11.85033518545402
C         3.67867977590108   16.32534498489992   12.91550522147602
H         3.15942596794859   17.18691278431782   13.28317944807607
C         3.58631169182637   15.01173890923579   13.38738322882521
C         5.01228673475200   17.38092751055315   10.97358999982244
H         6.08447409074510   17.54158113861729   11.07302885027837
H         4.49364603682121   18.29502601226844   11.24981617219306
H         4.80121727216853   17.15550383590568    9.93021067934214
C         2.85160355391189   14.46666398906601   14.52405606528229
C         2.22597994256894   13.22656093771059   14.42944021379616
H         2.21080368102222   12.71026351614625   13.48096080493757
C         1.62436118938448   12.66190043238390   15.53809885693828
H         1.16146896570545   11.69011725122643   15.45822559676227
C         1.62968332099600   13.33260245241626   16.74944987682194
H         1.17323513943804   12.88391727694425   17.61893505915558
C         2.22154677095271   14.58121591229980   16.84375615247404
H         2.21993016681683   15.11035932753368   17.78588791426672
C         2.82892235466671   15.14789175771856   15.73854039490166
H         3.31080032973584   16.11270497192634   15.81668467287006
C         4.54834103619185   10.90344271985613   15.59246131236172
C         5.10872379768418   12.11949493327966   15.99123050167548
C         5.30703514865778   12.39572537568197   17.33130952243174
H         5.74212701822390   13.34630126634472   17.61422346699744
C         4.95516360860623   11.47162079904782   18.29988039073227
H         5.11550361125713   11.69899723531157   19.34267826654162
C         4.40007417154586   10.26285543712562   17.91683991307946
H         4.12208960092027    9.53407924462241   18.66357347286154
C         4.19978739976347    9.98552360929535   16.58002036711614
H         3.76769501877518    9.04787007249519   16.26701927709012

