18
CSD_code = KEXVEQ | q = 0 | S = 0 | Stoichiometry = C5HF6NiO4P | MND = 4
Ni        3.74387026119470    8.11882298292380    7.35925203755950
P         2.16372177249291    9.52890303893196    7.91921021678893
F         0.63294778671397    9.35128788519491    5.71863669570275
F         0.28742774823684   11.15797612491010    6.84754150044296
F         2.09165005768000   10.94291380044897    5.69780496415465
F         0.12038660000450    7.79446521865985    8.06070155056004
F        -0.30054287616227    9.67503214442567    9.03047598042074
F         1.05092862862487    8.27595633644131    9.94808713672097
C         4.52743341361333    7.45810547298091    8.87493323527030
C         4.91088479206838    8.98048992526485    6.24350964503208
C         2.89736452730815    6.76319588040845    6.45506798364677
C         1.21615116524300   10.28420285592911    6.46894645465336
C         0.65369556356069    8.78444764179197    8.77465223872524
O         5.04637412783590    6.93812222499707    9.73756460242626
O         5.65801536648170    9.39839044759614    5.50210041969565
O         2.42721055639365    5.90508283255383    5.88923474722513
O         2.27403827881095   10.83803091385359    8.80813047049924
H         3.15654222984147   11.05457427278892    9.12925012052791

