32
CSD_code = KEXWIT | q = 0 | S = 0 | Stoichiometry = C6H13N5NiO5S2 | MND = 6
Ni        1.50814098331490    1.84062573041616    1.44962167067384
S         4.01794651737997    2.53521841744104    1.24663581742153
S         0.79910670800311    2.74352147026643   -0.63156097109869
O         1.19116369316808    3.37728016103440    2.39539668676163
O         1.31922184693960    4.26747372667781    4.41293713428782
O         1.88089846205201    0.22922857630227    0.70745361074110
O         2.41793118966239   -1.84316547100643    1.28091834740687
O        -0.71644003943438    1.17204388452881    1.75654515686822
N         2.15130157043299    1.05474370299929    3.20263396757883
N         3.53169618482094    1.07173927711180    3.41124834154860
N         5.72838756967935    1.34490589399276    2.80828963874860
N         2.00570597908130    4.59765276427365   -1.99716008711572
N         1.93845077629466    4.95120840454470    0.28054550769891
C         4.42847811884163    1.57773108763373    2.53272820883487
C         1.46650395150280    1.86222270212667    4.22111339029622
C         1.32285676924065    3.31157307048564    3.66964639001558
C         1.70571335982818   -0.32835093202924    3.02242375368780
C         2.04283487044588   -0.71964550448827    1.54139593852862
C         1.66617584759629    4.18681846019803   -0.76634625382820
H         3.87774107872519    0.44085010910988    4.13293281920902
H         6.40084724252194    1.67106167063927    2.13603957564864
H         6.01424068315615    0.63693803097434    3.46434311340403
H         2.00217518840841    1.86153219629458    5.17636932939213
H         0.45635829873814    1.47714498391706    4.37296946570209
H         0.62168436604374   -0.38363927936870    3.13658149647856
H         2.18178577798088   -1.01507398580818    3.73624469856862
H         1.81596803443654    3.98777882747002   -2.77265172811091
H         2.54724966232280    5.43186451539842   -2.14709518095537
H         1.70241537139713    4.59143377860975    1.21128006679575
H         2.56639254262803    5.73499211860809    0.20791286562226
H        -1.18958269985441    1.99664014724757    1.59301030299125
H        -0.82984990535267    0.62975146439824    0.96599692619977

