52
CSD_code = KEXXIX | q = 0 | S = 0 | Stoichiometry = C26H21HgO3P | MND = 4
Hg        3.54416805783324    4.43652297131253    5.51381547072772
P         5.21982166378940    2.86764188755351    3.51726071879096
O         5.67122772471267    4.23663276909830    3.84129082124248
O         2.19394528810054    6.16262454303478    4.67774545861560
O         1.17064515212623    4.31176351405067    5.27169896659008
C         5.96233975796141    2.28178128620327    1.96937832565203
C         7.06914382606887    2.96957320986414    1.49191133283772
H         7.44679661902701    3.80484847733160    2.06443770575691
C         7.65844000098689    2.58461503973551    0.30036944799714
H         8.51948181783654    3.11786203198216   -0.07457924326998
C         7.13872373261321    1.51587572022003   -0.41142963204579
H         7.59614615130915    1.21494768029690   -1.34246276927616
C         6.02860753963683    0.83243942581905    0.06298975062213
H         5.62457679515796    0.00294117736127   -0.49872787663875
C         5.43594689104561    1.21278355355322    1.25256519687308
H         4.56864113263540    0.68912284091126    1.63068128000329
C         3.43460574613298    2.75732919615533    3.16011292416561
C         2.91241149008629    3.78244681234744    2.37233944387207
H         3.56692901291304    4.58576680969977    2.05433461328499
C         1.57942812399073    3.75688341335383    2.00529507231188
H         1.17092295433105    4.55324688675328    1.40058951313744
C         0.77105059250346    2.71076366702196    2.42064343139429
H        -0.27274990218191    2.69507019226970    2.14350905349530
C         1.29121750483930    1.68648938051457    3.19513145805932
H         0.65409631929734    0.87710020231448    3.51926095097946
C         2.62479201082752    1.70015245373135    3.56247894885724
H         3.04131714480541    0.90052625684706    4.16134401151745
C         5.61207350509916    1.65411318620895    4.81935683946707
C         5.19583762261094    1.83517885001494    6.17247348954809
C         4.39784408323673    2.87328882210981    6.73119823288895
C         4.11037623910980    2.83526701083870    8.08377590048870
H         3.50017731354145    3.61778229576749    8.52219762166265
C         4.56608212630828    1.82241744807300    8.95130496219652
H         4.30199746512931    1.85987410766533    9.99776238138348
C         5.33388551372537    0.81877882482160    8.43646749951238
C         5.63510459128804    0.83643183819577    7.06381760065574
C         6.42958748671811   -0.26501010148676    6.69681953826988
C         6.81578668352804   -0.40093872500586    5.39360065991819
H         7.42946369365092   -1.22421457439166    5.05967083085709
C         6.39542631599374    0.57284478574794    4.47303837429266
H         6.70599758020992    0.46423859894280    3.44326079679607
C         6.69947474313431   -1.10643487046358    7.90993459561605
H         7.77248430381441   -1.17952080586902    8.09514579478182
H         6.32383359486913   -2.12104613326602    7.76613581939669
C         5.96919567041260   -0.38645389734706    9.06852858104873
H         5.21282719013985   -1.02667838949643    9.52563199220233
H         6.66344765937058   -0.08773034907690    9.85562679399488
C         1.15725829069366    5.46641481670341    4.79797313940986
C        -0.16267901066155    6.07218138426709    4.35665552795103
H        -0.65328530303195    6.49214614137509    5.23211312367282
H        -0.79826990882512    5.29693546550607    3.93911633327686
H         0.01449940160917    6.86328287090384    3.63460919514232

