44
CSD_code = KEYCUO | q = 0 | S = 0 | Stoichiometry = C14H22MoN2O5 | MND = 6
Mo        2.03578265523063    2.63406998605176    1.05691382019498
N         1.05023947421071    2.00367761917038    2.93195556821837
N         6.94371341860810    3.21230255054259    5.22390882252131
O         3.18775247359152    3.38068259904806    2.33129430266986
O         0.33203595019287    2.16991666659545    0.54006947698002
O         2.83589675255843    1.20272804993626    0.84772479346174
O         2.23405680667781    3.80463579057119   -0.09170004032960
O         0.65266432227359    4.78730368591063    1.82626278340518
C         2.97948751350921    2.10882143763947    4.33443932453477
C         3.72398832638162    2.93321469290256    3.44109819587995
C         5.02708223398093    3.29682450135469    3.76753038034408
H         5.52654104395664    3.92323073178276    3.04602308511459
C         5.65949402591172    2.86213727301000    4.93901880381337
C         4.89495944421911    2.05863739449578    5.82365841741621
H         5.32236431299490    1.69373747531880    6.74162188365851
C         3.60913223257756    1.70777887658109    5.52604608078697
H         3.05723547753100    1.08478540878177    6.21611127060849
C         1.64914734580158    1.72645596558612    4.03827996849625
H         1.11028983804403    1.17308231106736    4.81658614105188
C        -0.31294683714689    1.59630171342021    2.72026217466354
H        -0.96215006627457    2.46703988481081    2.88960776941446
H        -0.61514908548461    0.77241823546852    3.38051841468743
C        -0.38823436075824    1.21553900721602    1.23117791120852
H         0.07618014883743    0.22243100394916    1.08039353636648
H        -1.43341536027366    1.19346104182496    0.88234114730178
C         7.58022490508923    2.82390312293188    6.46377038503726
H         8.37737000860746    3.54307009747349    6.67141047511294
H         6.85609370821774    2.90716045713886    7.27746132966172
C         8.17276768853521    1.41381888421065    6.43181296275092
H         7.41876691367301    0.68928277389548    6.13624693716104
H         8.54888299515758    1.14842070309676    7.41657517868525
H         8.99600203634819    1.36030018751234    5.72487814339816
C         7.78542629997843    3.82585982326629    4.21522839862725
H         8.69006950375470    4.18512678515618    4.71038744085047
H         7.27525185414844    4.69910954438524    3.79835172920077
C         8.17514373729995    2.86673664571527    3.08996699218026
H         8.75513774807177    2.03394324192587    3.47825411362964
H         8.77632672447131    3.39287163597798    2.35316970754642
H         7.29209477987083    2.46826500175468    2.59836462998452
C         1.37326528067111    5.86108580675625    2.40392535511978
H         1.17741046637609    5.84794047605676    3.47705692584259
H         1.02831437426580    6.81551101344046    1.99057543768740
H         2.44969982133577    5.75959418039285    2.23033073564966
H         0.92930306697531    4.72798571587669    0.89048908940714

