55
CSD_code = KEYDAV | q = 0 | S = 0 | Stoichiometry = C25H20N3O6V | MND = 6
V         1.23135463702005    0.84272584004846   10.14322736722606
N         1.84032868202332    1.66107591711581   11.85337680222948
N         1.00423497797550    2.53479187450480   12.41020353566708
N         1.82958275704562    3.08655972046698    9.28731368587212
O         2.87959593920872    0.56556506018405    9.86875740700281
O         4.69111256699549   -0.98503478482299    8.71673357788542
O        -0.21234550675305    2.03138730766700   10.58565659354652
O         0.46853117675930    5.27881872911445   12.36710025494286
O         0.61862976573087    0.84434900553648    8.53613352517906
O         0.73218132509446   -0.40401367374783   10.86825755332192
C         3.88391601232866    0.41066350790378   11.98108331056731
C         3.83236562105479    0.08375712892930   10.60674206249325
C         4.84290413299102   -0.74051872632276   10.04725601558751
C         5.85479622832779   -1.22362714335115   10.85504587989252
H         6.62280491295554   -1.86308283106721   10.44975342415588
C         5.89889531892633   -0.88902265090397   12.20923497291961
H         6.70166441249333   -1.27728432801107   12.81675678850366
C         4.94005816504741   -0.07993249028867   12.76606268392915
H         4.97612526859063    0.17478086296992   13.81417532156473
C         2.88622258112688    1.28774430992012   12.51283389927052
H         3.02131816002569    1.68596872905179   13.51947486971056
C        -0.07024027041789    2.67170803598596   11.67118676523495
C        -1.13953399975099    3.58497660317393   12.12970677157546
C        -0.82820688219661    4.90166864792472   12.50701196923734
C        -1.85429570626228    5.73246172760659   12.94414400602382
H        -1.64964774448362    6.74626941512241   13.25055234388636
C        -3.15864929786755    5.26748334015970   12.99017838395451
H        -3.93937326189428    5.92749780809822   13.33870688210501
C        -3.46687803879966    3.98127851789664   12.58690643967676
H        -4.48667962252964    3.63064926734026   12.61531162618652
C        -2.45403161896639    3.14501637480421   12.15143482913154
H        -2.66179321804431    2.13305605740690   11.83690537103369
C         0.83352489721890    6.58836174412729   12.73080423817020
H         0.30761787879781    7.33652316422784   12.12764412567445
H         1.90295161770418    6.65922189384214   12.53786781166495
H         0.64692144835834    6.77955820706405   13.79218756954714
C         5.58577981340275   -1.87689592076742    8.09898796187034
H         6.61202130633526   -1.49409870095427    8.11747176860295
H         5.25157008370669   -1.96072512477554    7.06627933523389
H         5.55684985645177   -2.86420444605886    8.57063170925971
C         0.50542336649528    1.86606297799922    7.75096729886571
C        -0.20167289570059    1.84088676769332    6.55328181261344
H        -0.67155689002772    0.91705859131139    6.24860479926333
C        -0.30877309448797    2.98615090804761    5.76098741720632
H        -0.86526373666146    2.92677015596929    4.83683452016420
C         0.25962261401660    4.17729044473267    6.13567404074987
H         0.15454324820431    5.06008104411046    5.52270768402337
C         0.98600654477417    4.26266278382414    7.33971351258722
C         1.58178106463011    5.44438104015407    7.82749984350395
H         1.49019351865834    6.35833225908921    7.25691504699546
C         2.25949832886820    5.41491714389717    9.01731094265777
H         2.71737417699491    6.30432875318337    9.42235644306127
C         2.36752428944686    4.19992030246332    9.71421125453242
H         2.91208107730289    4.14845439731435   10.64973070150055
C         1.13043401174988    3.09942445308809    8.13880524273826

