39
CSD_code = KEYFAW | q = 0 | S = 0 | Stoichiometry = C12H16BN6O3Re | MND = 6
Re        1.83262133034696   15.01556001389092   23.78943945694146
O         0.84147433244858   15.12709355628066   25.13112113289062
O         3.15958914207397   13.62622365336310   24.04562091530633
O         3.38452122503910   16.12237080304990   24.19968687376398
C         4.36406550117581   13.99061975070230   24.62138261144657
H         5.17621934468684   13.80246898649814   23.89831369136617
H         4.54665533373476   13.36421562911175   25.50685568678330
C         4.32167526060559   15.49104249900976   25.01046809386811
H         3.96741096827417   15.56676389692366   26.05551227977275
C         5.68712781503472   16.17018847636886   24.88815147365952
H         5.60206115550148   17.21358480890687   25.17954675603901
H         6.03669664509604   16.12865864448788   23.85886295216429
H         6.40941885995791   15.67500260731387   25.53228545251251
N        -0.12954170170303   13.93428407370824   21.67330452817731
N         0.51192526615124   13.64694030281408   22.81037460614371
C        -0.95835519130796   12.92978817464104   21.36635054529053
H        -1.56379218496425   12.95940761205781   20.48317566764370
C        -0.85248047784139   11.96137441565894   22.34556409463238
H        -1.38055552461305   11.03276123648712   22.40682745984268
C         0.09303319741975   12.46360357717263   23.23479332390325
H         0.48286306854249   12.04576693187592   24.14116991008149
N         1.73341164382377   15.12472418308467   20.60872441635381
N         2.57412700264990   15.08002750344378   21.64687188433847
C         2.42759687832611   15.13518549666530   19.46452698021995
H         1.93232527678075   15.16941228470526   18.51536279209762
C         3.77230199986924   15.09669381887110   19.77415169147192
H         4.60231221851844   15.09318723440025   19.09848108458634
C         3.80861543236658   15.06487004398464   21.16611493925687
H         4.65644930887465   15.03817352445034   21.82152555112004
N         0.00978124318461   16.43291636425534   21.74421515748871
N         0.69227216158917   16.59239684812155   22.88286616656308
C        -0.70154126310206   17.53895769923390   21.49570787439222
H        -1.31485585535544   17.61991411909753   20.62127322585259
C        -0.47574557009695   18.44185250624314   22.51570601816038
H        -0.89354725863786   19.42055129595694   22.62735579166033
C         0.41568240762457   17.79466723567166   23.36668474713870
H         0.85983232808901   18.12196505675875   24.28528112017227
B         0.22096989134405   15.19143613880702   20.86311718916133
H        -0.39792121150806   15.25294899592604   19.86062585773558

