83
CSD_code = KEYFUQ | q = 0 | S = 0 | Stoichiometry = C29H50IrNP2 | MND = 6
Ir        1.98808805921042   11.49787514945752    4.90916895098605
H         1.59481321348236   13.01217350082515    4.86047499459152
H         2.38705223959297    9.98564983135598    4.96654194396840
P         0.59984421803670   11.08541694124440    6.68072701905135
P         3.79851461472419   12.03592025295352    3.61791037579871
N         3.35795003753796   11.91288806893981    6.46834605321835
C         1.91230331286685   10.61023630440367    7.90942485028951
H         1.57862896652510   10.64125733315387    8.94919879834206
H         2.16614728181907    9.57584372114259    7.65259484564756
C         3.13461064225076   11.44779853785097    7.70452448453446
C         4.01302668546974   11.70290205721209    8.74702610719937
H         3.80866786318406   11.30824599217529    9.73105865121713
C         5.14777995923360   12.46259409851384    8.51096856634330
H         5.84459495489163   12.67702960406923    9.30653706349175
C         5.36592907657766   12.94029647200311    7.22850787392241
H         6.23563539639491   13.53943338975441    7.00384319114172
C         4.45323007788339   12.64518579305802    6.22680116199819
C         4.63655435976576   13.16385319387729    4.83570883749922
H         5.69059447669651   13.34893367753607    4.61611799046575
H         4.08955271827450   14.10966719200925    4.75449658568020
C        -0.22594102097011   12.55624006326073    7.58323256335044
C         0.89439527460369   13.52847912074537    7.96359116817655
H         0.46240899859434   14.47476362134142    8.28940269995327
H         1.52584220372018   13.73082266161954    7.10136138447415
H         1.51135744358767   13.14728822006856    8.77521295147964
C        -1.00976979282388   12.21498635031613    8.84834454784994
H        -1.30060725566293   13.14356898842121    9.34103839697511
H        -0.41038065662458   11.64411064908699    9.55486104364629
H        -1.92060896600582   11.66767965326112    8.62322676313211
C        -1.13416899595447   13.27721756973840    6.58871703102520
H        -1.95759819760413   12.65253849299923    6.25741786669139
H        -0.54991629252167   13.56852877085638    5.72003989733710
H        -1.54804243570829   14.17662695020898    7.04478788033822
C        -0.55621392750573    9.57437703377158    6.76176278349987
C         0.06711920564987    8.49759864622866    5.87175250951626
H        -0.56475947776592    7.60976301595814    5.87263311818944
H         1.05552136998271    8.20873508615722    6.22177583818824
H         0.16086751909819    8.85925176419392    4.85136993589466
C        -0.76237537200667    8.96969439399159    8.15168139802467
H        -1.21843142767299    9.66073489868523    8.85064376426040
H         0.17532582513972    8.61424574259767    8.57255366691356
H        -1.42669882654122    8.11023722084753    8.05875449528175
C        -1.89547736189202    9.96323683698326    6.13511282305048
H        -2.47733336308540    9.06727196174877    5.92004002838446
H        -1.72165691565584   10.48815313841103    5.19564949473320
H        -2.48724619839972   10.59078337960104    6.79690227603785
C         3.68109162427837   13.15842067417683    2.08427574519135
C         3.39866436909983   12.27709252338387    0.86729897135820
H         2.60595948344805   11.56752536469399    1.10486433996711
H         4.28402529715056   11.73609022784347    0.54262644480099
H         3.06287251644092   12.89373001215129    0.03389566319127
C         2.45904657865148   14.05527857839956    2.29029969661208
H         2.33870203478446   14.71465198057342    1.43106921638308
H         2.55916480981758   14.67399772939176    3.17914791744177
H         1.56164825503250   13.45181854648043    2.39644771006018
C         4.88752384446400   14.06398728775854    1.83027675178694
H         5.80251695403812   13.51083732259325    1.65465213404505
H         5.04786364534041   14.75213722991809    2.65700052334516
H         4.68896442108359   14.66143803384893    0.94021092323414
C         5.16527108053384   10.72754687700002    3.33524970120933
C         4.54653031521301    9.54290205569710    2.59527408164940
H         4.20370266817791    9.81343402874772    1.60163065925698
H         3.69858625991482    9.17144735172626    3.16433189377187
H         5.27719583664824    8.73971394291851    2.49911060080335
C         6.41230687736090   11.20662019239316    2.59583643093108
H         7.16448572429168   10.41755926057395    2.63065232417634
H         6.84447649470806   12.09072149453971    3.06050790033899
H         6.20644556604040   11.41312941364703    1.54948508642466
C         5.59272650786000   10.22730188622841    4.71804500543068
H         6.21302653401037    9.33758117585381    4.60927485445513
H         4.71935760003545    9.95366684936839    5.30579490925015
H         6.17038354555668   10.97113246437293    5.26370297966771
C         0.63057537823938   11.08987290300413    3.36071518048568
C        -0.49148255988646   11.89148957254144    3.11053918612031
H        -0.67727588668531   12.76065757039157    3.72408619979269
C        -1.38858212714215   11.62885873081886    2.08834962656968
H        -2.23884116156186   12.28288597510489    1.94483184310628
C        -1.20269540960300   10.54332703405274    1.25294109196427
H        -1.89838845848990   10.33634394136385    0.45186790881775
C        -0.10640298860835    9.72868336067070    1.46586706255161
H         0.06344831244028    8.87193902670702    0.82676817722847
C         0.78055115607903    9.99778336817833    2.49522167372424
H         1.61212539086124    9.32096067022530    2.62490491305832

