72
CSD_code = KEYGOK | q = 0 | S = 0 | Stoichiometry = C32H22BF15OZr | MND = 11
Zr       -0.11824110224310    2.15729931909429    4.05933553511695
C         1.71149449800426    3.61395800344581    4.99491794983453
H         2.07151713253725    4.54171028328023    4.56867413561107
C         0.71701026697652    3.51265418255529    5.99314806095369
H         0.17755509945226    4.34256032645093    6.42781720069966
C         0.67556802197524    2.17781758210647    6.44050673790495
H         0.09017063657832    1.81406454594659    7.27552683321057
C         1.67253828851135    1.45764488802180    5.74457208970698
H         2.01188493216674    0.45664012523729    5.97289630065950
C         2.31476575146077    2.34408482414394    4.86007821853389
H         3.21046280687950    2.11985336907250    4.29966656117500
C        -0.81248523188757    3.72587136243887    2.64885341858036
C        -1.00151094623506    5.06538789204149    2.95630526154109
C        -1.43091073027968    6.03026044307155    2.05316988379219
C        -1.70706818574109    5.63255452617423    0.74603995347165
C        -1.55653125686208    4.29357739779789    0.37992649071633
C        -1.10834396413039    3.39719951287964    1.33569952381393
F        -0.70377295312782    5.40522692331368    4.24285898147590
F        -1.55952449852427    7.31149088655129    2.40402915685356
F        -2.10766581355185    6.52659235058605   -0.15917161556591
F        -1.83670859647270    3.90530699788507   -0.87280393132370
F        -0.90922136835758    2.07580940693537    1.02343998960947
C         0.04594725640321   -0.08050662341520    3.67420687465888
H         0.87064511899146   -0.77926803526338    3.82046662198395
H        -0.40201269355587   -0.21399173042254    2.68339811982912
C        -0.91173871269387   -0.08558882263123    4.76696250351654
C        -0.66644954529111   -0.91976938784847    5.99837148162413
H        -1.09680194528556   -0.46666056458568    6.89104601280576
H         0.39153005794996   -1.10742599837385    6.16867823327105
H        -1.15067803443910   -1.88911476677278    5.85768078336668
C        -2.05744937443570    0.69126930057413    4.68515212098887
H        -2.71083162869634    0.75600640050326    5.55602854655270
C        -2.50153084890580    1.29676820776915    3.44984073170707
H        -2.17563675807517    0.75009345698748    2.56480817686582
O         1.59477471674255    2.25701201137748    2.10060990828936
C         2.07921422468806    3.50193242960674    1.58259083216877
H         1.62201519831451    4.27296031975947    2.21108362400709
H         1.71359604768646    3.62884902511443    0.55328481892473
C         3.59585941181637    3.66401115726804    1.60674302006699
H         3.98103770636114    3.51830268615305    2.61192948128658
H         3.84317208139299    4.67282258364541    1.28755410153001
H         4.08417973468441    2.96810487412523    0.93036493272063
C         1.97912430239450    1.12763167437101    1.29329520400376
H         2.26300179205239    1.47204368769564    0.29404171697500
H         1.09128219594975    0.49671712596397    1.19471037393450
C         3.11039432302014    0.31990818345220    1.92005055575424
H         4.03881138373082    0.88296851226158    1.94800913230161
H         3.27235122083077   -0.58159805384266    1.33576346562078
H         2.84096067654001    0.03732744458627    2.93505997893700
B        -3.56814881286541    2.30268354993410    3.28033309927432
C        -4.14470181027886    2.65953264144239    1.85319632934783
C        -4.48671830258002    3.96766737538135    1.50789218331636
C        -5.01327632361838    4.32596390363667    0.27592548030791
C        -5.21271226162574    3.34694335614516   -0.69214757321810
C        -4.86954346505039    2.03143221273430   -0.39922931693127
C        -4.35012259670636    1.71288013435451    0.84862600824248
F        -4.25185053853105    4.95841921847948    2.39713801456518
F        -5.31560872380098    5.60165665828910    0.01280863532464
F        -5.72065105256603    3.66591136647226   -1.88498218070417
F        -5.04615193967038    1.07669926381844   -1.32076205199534
F        -4.04654700403155    0.42541525921397    1.08042980962155
C        -4.11513315083886    3.13524013180267    4.49901888316191
C        -3.26187957844554    3.56992672146511    5.50598994985593
C        -3.64821551480544    4.32364111183951    6.60015394201694
C        -4.98639019779781    4.67911154738990    6.72822865555180
C        -5.88934700312834    4.27100457939068    5.74476439006605
C        -5.45107632732967    3.52091824056991    4.66302316062661
F        -1.90943313162119    3.25779449559018    5.39841139152714
F        -2.74294781244877    4.68938338629724    7.51556530380315
F        -5.40348492367928    5.39295643523363    7.77702286585512
F        -7.17818865671477    4.60063356165396    5.86354298488082
F        -6.35652156715764    3.13991460165918    3.75293194538308

