60
CSD_code = KEYKEE | q = 1 | S = 0 | Stoichiometry = C29H24FMoN3OP(1+) | MND = 8
Mo        0.79410130754535    3.57873100449690    2.46821141402230
P         2.40172204608952    1.78470515755533    2.19764258896117
F         1.84492407069433   11.10525468140768    1.29397324581139
O         2.05653110896215    4.08169771599376    5.05770220085554
N         1.58155634132423    3.88948307085040    4.00302736761372
N         1.78638460973515    4.83347124450623    1.66182599654855
N         2.40913294923811    5.68256547171745    1.10398728693558
C        -1.34630021463723    4.35049462578140    1.96217962676196
C        -0.95995185545842    3.46531183374519    0.92415212627449
C        -0.79569467534801    2.18325973858164    1.48536785957568
C        -1.07159162305261    2.26562151897381    2.87453950146976
C        -1.42109724137159    3.60318022736891    3.16504500196335
C         2.23575640837538    7.04956438222049    1.16146295607852
C         3.00654685365491    7.84647130752743    0.31046280468251
C         2.87185568540550    9.21796140575258    0.35145766480073
C         1.97490881795822    9.77833589899645    1.25101343235937
C         1.20848829356255    9.00273165659789    2.11279362989257
C         1.33686208089086    7.63289077734685    2.06466936397402
C         1.69999495595308    0.28541492527766    2.92648707405026
C         1.29667611076359   -0.81153497123345    2.17293907450825
C         0.69786696888182   -1.89096830601201    2.80145649991093
C         0.49592343348350   -1.87652761355933    4.17172275240604
C         0.88991388461118   -0.77898601020522    4.92462147014010
C         1.48381876807966    0.30438010427028    4.30596502160412
C         2.89153934162930    1.36348370699517    0.50621492908009
C         3.77808850010931    0.31300451639916    0.27420932360946
C         4.15572885372745    0.00910686567602   -1.02004634013924
C         3.66176294348792    0.75246492282501   -2.08199012407622
C         2.79307784841744    1.80720873408946   -1.85185859355334
C         2.40799870281846    2.11558152588101   -0.55887257346443
C         3.99174117514083    2.00503123265695    3.04362101145828
C         4.58748657872826    3.26402765893627    2.99523197020413
C         5.81495931402946    3.46802684344434    3.59780434385460
C         6.45234841363123    2.42161316282464    4.24668090956583
C         5.86511765900531    1.16785260695585    4.28855073047594
C         4.63764079455725    0.95290467223720    3.68709508977175
H        -1.71280136251871    5.36064150299404    1.82194216038734
H        -0.98233251360929    3.69779072787852   -0.13496190141472
H        -0.65513081667249    1.26341065822150    0.92793310275126
H        -1.20750049427032    1.42072876405653    3.53984945558672
H        -1.83368036515547    3.95926443004689    4.10230153756019
H         3.69366246374697    7.37698653295679   -0.37500906188513
H         3.44854458665214    9.86003898565342   -0.29474352527674
H         0.53245378511154    9.48221838485515    2.80266172982092
H         0.76674835458036    6.99694140297040    2.73309810205799
H         1.45689376040720   -0.82403645741247    1.10329072303181
H         0.38890932149033   -2.74482878561707    2.21823207289271
H         0.03048673793755   -2.72088509397579    4.65584145654485
H         0.73212402607667   -0.76992997833067    5.99224446009734
H         1.80078504697162    1.16514591556707    4.88614956292268
H         4.16512629420576   -0.25690333218166    1.10768126883960
H         4.83821164589278   -0.80655062603169   -1.20277028534796
H         3.95959306633882    0.51192253307863   -3.09067725859634
H         2.41830376318285    2.38915760161924   -2.68003620074419
H         1.73570289630478    2.94890910470934   -0.36655061960234
H         4.08501812808881    4.07937040428613    2.48376378194550
H         6.27378924888553    4.44415394839721    3.56565113107483
H         7.40704826347150    2.58476605211182    4.72189454511555
H         6.36184918489551    0.35366043063531    4.79353269864582
H         4.17747576677271   -0.02468940295284    3.73093442519833

