68
CSD_code = KEYMEG | q = 0 | S = 0 | Stoichiometry = C27H29CoN5O5P | MND = 6
Co        1.60698440115398    3.79532574016626    2.70674984685884
O         2.53338364596919    6.10357593206709    4.00596442735948
N         1.83362271253988    5.63944713117070    3.03466524500498
C         1.35408628482856    7.90092076147778    2.19508707428067
C         1.24305340469127    6.41070461933355    2.16835347988021
C         0.47903103808011    5.70332607323965    1.17966343238710
C        -0.28551502890873    6.40706148498460    0.11051577938583
N         0.49698622085054    4.41940274741289    1.31648323284647
O        -0.19160856936110    3.64512404324760    0.44415901195021
O         0.68310222807959    1.48110765128919    1.40314115506510
N         1.43257388632579    1.94715779763246    2.33389830269615
C         2.15367279730325   -0.31249571309225    2.97927624887919
C         2.14724527650017    1.17642514577172    3.10261257770971
C         2.96334075820244    1.89008666569187    4.04341419252581
C         3.93144942411195    1.20034372557200    4.94318052126175
N         2.80938285999929    3.17295422819661    4.00809548077101
O         3.58153401214162    3.95668956983900    4.80334345335506
N         3.02802498017249    3.87751769796400    1.51564648233384
C         4.02283093224129    3.44082591980989    1.05529035373749
O         5.01179800068687    3.10130792853758    0.52775277458615
P        -0.20842164035437    3.73632810472039    4.05267597376865
C        -1.39357040508742    5.09266309873533    3.72688542647573
C        -2.60820293067926    4.97218605464414    3.06542986672001
C        -3.39544651758866    6.09214838321650    2.85245096979533
C        -2.98295241737164    7.33557070062034    3.29785132801649
C        -1.78268065036679    7.45823951128867    3.98039499771714
C        -0.99266292234971    6.34563136785507    4.19299369716461
C        -0.21472499713455    3.90660034035032    5.87643744892056
C         0.92605818717285    4.08693815287978    6.64434040046204
C         0.81971397904996    4.23459573874645    8.01911825266395
C        -0.41896635261530    4.20399833439612    8.63243645076670
C        -1.56310699429553    4.02692046480265    7.86795469280752
C        -1.46383731788834    3.88215408459086    6.49939601267366
C        -1.09718801591302    2.15749006362807    3.86305120162630
C        -0.96934219175044    1.18671541948853    4.85526976519196
C        -1.52581894825760   -0.06635520407263    4.68262131195375
C        -2.20239340149949   -0.37293907906835    3.51310916618766
C        -2.30454141495765    0.57454246185448    2.50988798967237
C        -1.74225240546719    1.82807026349176    2.67269973647768
H         0.36883225739264    8.36304765347502    2.17724514277801
H         1.91971820644708    8.25309807583156    1.33351185256908
H         1.88030871910807    8.19469318696024    3.10056007998192
H        -1.13396165241827    6.93289291040903    0.54839686617961
H        -0.65070243163512    5.68349418734351   -0.61343216685424
H         0.34962997610595    7.13470344270134   -0.38864949205721
H         0.10997048549995    2.67528435838335    0.67141235275349
H         3.15345647598565   -0.67519423188784    2.74757406813088
H         1.47594497258615   -0.59452532633844    2.17654252091508
H         1.82036553174348   -0.77636226559838    3.90696134571428
H         4.35061977951405    1.91264199384818    5.64888279517403
H         4.74111004540820    0.77604362240953    4.35108237280179
H         3.44072790979447    0.39120685928182    5.48003630200309
H         3.29573989302006    4.93096388914943    4.56378462075994
H        -2.95914582044443    4.01006447946049    2.72819641392097
H        -4.33832980801964    5.98813621839562    2.33599351028716
H        -3.59897213839680    8.20526778382075    3.12362704046495
H        -1.46373036429589    8.42185836973893    4.34925146878757
H        -0.06393328371068    6.44203731294981    4.73899251400951
H         1.90147028942733    4.12240024105653    6.18992596881520
H         1.71366082383547    4.37640029809586    8.60777613606892
H        -0.49791984824666    4.31971133358038    9.70310788159181
H        -2.53365147542823    4.00429439865420    8.34129587485038
H        -2.35558044912761    3.74422066398165    5.90242808510560
H        -0.42828464704660    1.41292516451213    5.76400395480647
H        -1.42321691871333   -0.80905039473806    5.46047312895128
H        -2.63313921340750   -1.35390270934526    3.37880509970108
H        -2.80455978311244    0.33311902134534    1.58421223668063
H        -1.79086944026748    2.53412204979586    1.85860426344250

