75
CSD_code = KEYPIN | q = 1 | S = 0 | Stoichiometry = C34H38AgP2(1+) | MND = 2
Ag        3.97530227677785   16.08331219696086    5.05742232537449
P         2.55866507855384   14.42912924003610    6.13058543949505
P         5.29826580821062   17.66331268108477    3.77743356004598
C         0.95711935370309   14.22769131642054    5.23201640673651
C         1.23100021614388   13.73146945575426    3.79516458397146
C         0.64582295585218   14.80151328253636    2.87073558057832
C         0.73646356594109   16.07700791356389    3.69905800508544
C         0.29335208402526   15.60789405406001    5.08061933414460
C         3.26333844272048   12.75643575942214    6.08560377737331
C         2.64060777600657   11.69851117753540    6.74098068867769
C         3.19309240887086   10.43327827138235    6.67804902595706
C         4.36503734060689   10.21899370922049    5.96821718916298
C         4.99234117657109   11.27147856599382    5.32155315686503
C         4.44288652073127   12.53886909050190    5.38225626279274
C         2.14332188607064   14.59835033364488    7.88966036571306
C         3.23594584424421   14.64882875228110    8.75498731168669
C         3.04243717491897   14.75888606582157   10.11730508346257
C         1.75408087690285   14.83229164791196   10.62535955063275
C         0.66694944572027   14.79823324192838    9.76865431174239
C         0.85406180289780   14.68352321873241    8.40117744067927
C         6.06474439207680   16.99888811811748    2.23267599547136
C         4.95668776801868   16.51430322341555    1.28489453560905
C         4.80882492357919   15.03890806157480    1.63652627888331
C         6.25611497510171   14.59391690048797    1.81001949145461
C         6.89749098714175   15.74695773708000    2.58730770519421
C         6.73682692594383   18.29956232125255    4.68320373141851
C         7.12879394822237   17.65348539639249    5.85078365723457
C         8.23443429702704   18.09609644349087    6.55292062251506
C         8.94696059817181   19.19183759768428    6.09364464750152
C         8.55251065159196   19.84629713369350    4.93656967010489
C         7.44967912937918   19.40519012635237    4.22966062266704
C         4.40353092099875   19.16902883471137    3.30033992052851
C         3.42402498203450   19.59488505815111    4.19500950165124
C         2.70593182855050   20.74938032488612    3.95156727203435
C         2.95677784400904   21.48385812873391    2.80313548555271
C         3.91946574830284   21.05827984086059    1.90234024182859
C         4.64421051612548   19.90440710047677    2.14437329455526
H         0.33112629534970   13.52218466154993    5.78748441212589
H         0.79370511349105   12.75113076298723    3.61604653309972
H         2.31115847497771   13.64428140840946    3.62324587091157
H        -0.40062189569556   14.58287788685687    2.65602511207723
H         1.18221936091065   14.87043899045514    1.92643256086057
H         1.78638575857629   16.42467086049535    3.73583850977841
H         0.12257105945160   16.88623460178795    3.30996108551903
H         0.59229297767679   16.30164777854518    5.87183389513653
H        -0.79306739908883   15.51142930539999    5.10341949858290
H         1.73357521765550   11.87277073117671    7.30349306147090
H         2.71180294628849    9.61129444842777    7.18550992524634
H         4.79318891805830    9.22961341349173    5.92379570949070
H         5.90842557850453   11.10318794516511    4.77582421792358
H         4.93064662508003   13.37870705160698    4.88579473617743
H         4.23863839747233   14.59032614979338    8.34434292056031
H         3.89098527654337   14.78922547050250   10.78367473294374
H         1.59907052242834   14.91973147637121   11.68953517128912
H        -0.33509603668059   14.86062392729696   10.16524762389035
H        -0.00358739967015   14.66364946214192    7.74556746119836
H         6.68660600455288   17.78094248399706    1.78643889426630
H         5.27555884439515   16.61553800401914    0.24670030539983
H         4.02620832559582   17.07309478777467    1.41407852455643
H         4.27007676288341   14.94111095997598    2.59566101906602
H         4.27496059545554   14.47111788377685    0.87778611044690
H         6.34817017166068   13.64155309772569    2.32879198045349
H         6.72418348257351   14.49474572204300    0.83028250569916
H         6.83985467746013   15.54685269570528    3.66625084163446
H         7.94887822253358   15.87431420126857    2.33679089001790
H         6.55616240721473   16.79807876403973    6.20789166239850
H         8.53864924962592   17.59167759106834    7.45743760830775
H         9.80835822477834   19.54083533614996    6.64170681734119
H         9.10581953459440   20.70442849210371    4.58675832466476
H         7.13342559647572   19.92241885774520    3.33461735616552
H         3.23443730560044   19.00807239061886    5.09183486344860
H         1.95134687640792   21.07587809280703    4.65085956336199
H         2.39726493545097   22.38537270947731    2.60747511723427
H         4.10757250768699   21.62790131657224    1.00498448699089
H         5.38284401191942   19.57834795841886    1.42706801587173

