25
CSD_code = KEYQOV | q = 0 | S = 0 | Stoichiometry = C10H7CrNO5S | MND = 6
Cr        5.00518990029200    6.17728340679180    6.31960584910353
S         5.99761039664711    6.17440027139736    8.68969853436253
C         3.77518817949431    7.49309120263061    6.81503176356495
O         2.96051199657507    8.28699338386829    6.96569180752545
N         8.37498991621486    6.17951847853912    9.82441079300390
C         6.16246906093901    7.50095754399111    5.70188332546872
O         6.78929128248758    8.30747783421126    5.17312815779683
C         4.23522523636038    6.18101175127005    4.64835787669721
O         3.75251579213546    6.18304494161313    3.60069006227377
C         8.94960079508590    6.17290958447921    6.40088994229599
H         9.43195736007248    6.17097063736675    5.46792874432853
C         8.38470889001443    6.17550864407411    7.46387357426852
C         7.67866629560022    6.17653487427206    8.68217225203355
C         7.66438196508822    6.17890698618895   11.07558811972574
H         7.02009712306707    7.05891973642712   11.14239455757677
H         8.36723049596231    6.17879276309315   11.90325663476272
H         7.02051027944832    5.29855961311192   11.14193415054004
C         9.81857510170074    6.17962651018142    9.79510715093583
H        10.19550708970803    5.28819675568711    9.28804274188056
H        10.20456026956246    6.19523634204788   10.81068075831844
H        10.19413483816472    7.05589133357570    9.26152880967224
C         3.77619365672617    4.85857047919041    6.80982330253161
O         2.96076955359978    4.06494009640946    6.95839915750096
C         6.16197173589820    4.85570885236349    5.69647818574574
O         6.78674278915161    4.04994797722062    5.16400374808950

