59
CSD_code = KEYRUB | q = 0 | S = 0 | Stoichiometry = C32H22N2O2Pd | MND = 4
Pd        2.33346586700364    1.33136128976924   13.97623895277604
O         3.19226162721587    0.12311916937818   12.63966340217492
O         2.56605865421203    3.01215274902501   11.80964995100585
N         0.37590696823535    0.58575457563695   13.14954431475687
N         1.57210228611584    2.24317396622363   15.49770814423067
C         0.49475752998883    0.63733412234363   12.00233264827437
C         0.58627266511713    0.71508457043977   10.57885710178671
C         1.13946299608222    2.88558621203912   16.34892886734223
C         0.62093263829847    3.69849088336131   17.40418327802299
C         2.98991019960735    3.26988470588154   12.95348236145719
C         2.47600224680099    4.44957539106368   13.69253944440710
C         1.41054275004777    5.14705049232504   13.12280342598613
C         0.90364429675971    6.28093148263294   13.71706847543301
C         1.48254310447469    6.74385053493892   14.89178326202973
C         2.53992950286236    6.06789046129013   15.46287003191252
C         3.06156196911549    4.89993756995497   14.89162679682311
C         4.15151540146996    4.14935106504095   15.49996662327212
C         4.73136624520362    4.51763468527461   16.71918433535167
C         5.75360529144672    3.78725561473340   17.28377088290126
C         6.23170510194119    2.64723868747472   16.64626632462272
C         5.67892823159209    2.25527207059540   15.45102984549197
C         4.64063039639121    2.98997773827167   14.85578230863986
C         4.07792336558962    2.51360131972792   13.59891486032992
C         4.31074270893333    0.57783221695684   12.13864300963826
C         4.94656223042261   -0.15133103830554   11.06614388893520
C         4.31159851299149   -1.27296311863498   10.51812346587163
C         4.90326584848071   -1.99679772913680    9.51457256017723
C         6.15822775248694   -1.61114525440416    9.04611143380070
C         6.79672048604975   -0.51712787965151    9.57846578035598
C         6.21596674078733    0.25172644330697   10.60044598197004
C         6.84478412731343    1.42384748140664   11.16430278624808
C         8.09955752791695    1.87819600347590   10.73352195469349
C         8.66231035706960    3.02973610943065   11.22671751327124
C         7.96822503187456    3.79354769698239   12.16299114991434
C         6.74443828092830    3.37396006172682   12.61541299108732
C         6.16653135352068    2.17321950062875   12.16227333140406
C         4.91144187952986    1.70999152625376   12.65653434929321
H         0.96535154882670   -0.22623351200326   10.18357836068237
H         1.29542431082781    1.51254049633725   10.34306488094968
H        -0.38830849963689    0.93868459154219   10.14619635929991
H        -0.38649916848416    3.37384215755320   17.66270168611835
H         0.59490568557178    4.73649015648175   17.07084921575631
H         1.26472801261393    3.61574206167314   18.27978797560807
H         1.00607859175709    4.76644914546521   12.19626555507594
H         0.07494546425184    6.81121751786380   13.27247889627560
H         1.10662903264370    7.64223549377114   15.36107514414460
H         2.96976544736174    6.46505478475413   16.36944822093713
H         4.38115318672153    5.39412712171462   17.24195418555946
H         6.18179259183907    4.10082560193244   18.22453937683263
H         7.03037910960429    2.07284853392624   17.09102784468875
H         6.03298489488674    1.36683269483366   14.94694478568245
H         3.34759059904552   -1.55221455119219   10.91842749965737
H         4.40935635451315   -2.86011216817823    9.09217719291229
H         6.63331560314226   -2.17901653890442    8.25860631110243
H         7.76733422754457   -0.25295612784035    9.18899752750846
H         8.64708194788714    1.31790824240149    9.99193670413360
H         9.63238489470196    3.35233564151554   10.87735367598984
H         8.39308461961059    4.71762803453226   12.52818440138035
H         6.20851937273290    3.98096924213400   13.32874836354847

