46
CSD_code = KEZBEY | q = 0 | S = 0 | Stoichiometry = C18H20N4NiOS2 | MND = 4
Ni       -0.47208552220880   11.49858260831098   -1.00147635636097
S        -2.15090994621924   10.19326025434036   -1.46779843954124
S        -1.33840042351895    9.83435918300622    3.79213599627717
O         0.96042525731992   12.60987748884495   -0.56695971553527
N        -0.38353894994494   11.91294617713543   -2.81340531783902
N        -1.25884483904109   11.34793251182126   -3.68363348557316
N        -3.07144764868474    9.88664837203785   -3.89790795180518
H        -3.67297612447029    9.28685273631110   -3.34842155526936
N        -0.55551967427016   11.05592779306518    0.94927812668531
C         1.69168592765420   13.36383902341453   -1.31702947142933
C         1.49851108236275   13.46545994499688   -2.72602809010708
C         2.33543124719038   14.30771062096374   -3.47977222772482
H         2.17506221653943   14.37242766422390   -4.54654952732590
C         3.33299473601318   15.03364600440149   -2.88445352762666
H         3.96843924389825   15.67717079220716   -3.47325319080552
C         3.52631595113524   14.93792146325722   -1.50325332678722
H         4.31316845099040   15.51092439436077   -1.03401180616948
C         2.73055471814106   14.12685409343417   -0.73769931102828
H         2.87686614100323   14.05002388476665    0.32972309093558
C         0.47371440765444   12.72925772398786   -3.36841963238720
H         0.37652161646533   12.84828593670245   -4.44558237716666
C        -2.12663706882450   10.53375922008227   -3.17587222435390
C        -3.33633325023195    9.92486408764913   -5.26037683051351
C        -2.59904215454581   10.69821792043192   -6.15291300983379
H        -1.78632515431813   11.29556599622340   -5.77610380856151
C        -2.91832605382723   10.68790436606819   -7.49771314188339
H        -2.34084643566187   11.29063988254554   -8.18309307654142
C        -3.96582561494306    9.91586304145590   -7.97150123485554
H        -4.20874506136059    9.91321434227271   -9.02319781324204
C        -4.70078950615643    9.14583748170680   -7.08492645135053
H        -5.51999256275011    8.53982660585783   -7.44303251336149
C        -4.39146045438197    9.14757943487033   -5.73929890827995
H        -4.96659740186702    8.54557884008147   -5.04930048150119
C        -1.77505684188390   11.50117509269395    1.63539039981122
H        -2.59264404864698   10.83022613630713    1.35592363151024
H        -2.01961073290594   12.51096100650523    1.28697769538563
C        -1.61230947601690   11.51818063207286    3.14967156783197
H        -2.51676795481958   11.88321990245042    3.63185596304633
H        -0.76769276678992   12.14094289361162    3.45256566678488
C         0.11035354101942    9.47392755549425    2.74609059126496
H         0.92713755167298   10.12945684766117    3.05604455312084
H         0.38320374380364    8.44092175613660    2.95174169241980
C        -0.22432184460539    9.66210201789731    1.27219518898657
H         0.63709556232636    9.36123284951857    0.66512008032916
H        -1.07717162978431    9.03315994263684    1.00046670455235
H         0.21743774748992   11.64023347617945    1.29110385582055

