44
CSD_code = KEZCAV | q = 0 | S = 0 | Stoichiometry = C19H17N5NiOS | MND = 4
Ni       10.66543379004443    2.70879160112868    1.58677937754337
S        11.81141757897042    4.44540923730141    0.91624447106205
O         9.67713956053342    1.21131299638637    2.11194716233175
N        11.93075760685807    2.47279309186054    2.92481419247174
N        12.97627536170030    3.33667041545278    3.03439374379935
N        13.99078865152184    5.23824977534596    2.12976203481485
H        13.87793624299875    5.91354443984555    1.38522760971255
N         9.36435672172518    2.97898707872430    0.21602464248493
N         6.33122148635559    3.32380410007302   -2.59688989746818
H         5.63099717260969    4.03609313626560   -2.49590597067627
H         6.15729528042634    2.57455079154805   -3.24202492825545
C         9.87575984989865    0.38286188139202    3.07653699157000
C        10.98593182169805    0.48130561986062    3.96799824988315
C        11.13638126153137   -0.46682648527206    4.99594115666062
H        11.98379335037658   -0.37556179469608    5.66094604184193
C        10.23593659105481   -1.48587090801713    5.15843852349845
H        10.36195531264389   -2.20794345428736    5.95083868978746
C         9.14532290080800   -1.58845536593395    4.28850742478818
H         8.43532978888249   -2.39315114344715    4.41810963412917
C         8.96668894696289   -0.68338473438579    3.27669613823760
H         8.12685441358694   -0.75593433750039    2.60150371395513
C        11.93348793306458    1.52261875942377    3.82315130658871
H        12.76037587793152    1.54725449397395    4.53044723927415
C        13.02218692482473    4.28942117152710    2.16230981641824
C        15.09174429940745    5.42021304779148    2.95292513326030
C        15.39308078509995    4.56928679229391    4.01349936837631
H        14.74501156449292    3.73158911471840    4.20746031051855
C        16.50809554086002    4.81041836450885    4.79362932997600
H        16.73384712798384    4.14492756606006    5.61401439135684
C        17.33405525151097    5.89173645886702    4.53541372318638
H        18.20288746978433    6.07348997763035    5.14980684847063
C        17.03647627149556    6.73974160321555    3.48115829794559
H        17.67341891234817    7.58630242574972    3.26990741348412
C        15.92589409956243    6.50895129000500    2.69410145344774
H        15.69618002508484    7.17220199021682    1.87139119456870
C         8.51038803034221    4.00568272801666    0.24630203693103
H         8.66324967324420    4.74226564381933    1.02646374884359
C         7.48396374706883    4.15501771555607   -0.65651536520553
H         6.82034970735088    5.00298859932171   -0.58836108511318
C         7.30658766407870    3.19987334405736   -1.66667348603739
C         8.21146537560110    2.12996862204730   -1.68879924353498
H         8.12675190091149    1.36350190562367   -2.44349925598494
C         9.20560870675310    2.06134972374757   -0.74109130575333
H         9.90631942001216    1.23515272018119   -0.74113087319072

