43
CSD_code = KEZMIO | q = 0 | S = 0 | Stoichiometry = C18H18ClN3OPdS | MND = 4
Pd        5.33484893365785    0.78073864772458   19.58251493430421
S         5.89091552868580   -0.70363127361879   17.82078919750406
Cl        6.89922698479828    2.29494468399196   18.97716025689227
N         4.03938193746498   -0.66561746655749   20.14738070763559
N         4.17288615761130    3.07113964038417   21.21786766772798
N         4.39066577274629    1.16462679629097   22.25015208918045
C         3.74550161829589    2.00125865713282   23.13097981400773
C         3.61144434161791    3.23494599642011   22.46559593690689
C         4.93697676374742    0.07743239220805   16.51648712860698
C         3.93483875540349   -1.11905273088515   21.38487831901602
C         3.53340289956530   -1.47076053174973   19.06051975547323
H         2.89944826252299   -0.85623263870501   18.40460730538684
H         2.93331892536190   -2.29413012278121   19.47094858777758
C         4.17754123504037    1.21404563418214   16.76268476264969
H         4.15995134388739    1.66403605463679   17.76922461408819
C         4.64161104375471    1.81685774149521   21.10129414477324
C         3.27231105508101    1.83140420792050   24.42422436433867
H         3.36462914360321    0.88999673037837   24.94135537238811
C         4.69343047441044   -0.23298606199032   22.42359805619529
H         4.41030545706086   -0.55541932401183   23.42511674284122
H         5.77419534873833   -0.39364012957846   22.27585484248898
C         2.66876745291954    2.91946548768659   25.02400785942309
H         2.28825530011485    2.82326794085529   26.02907902396849
C         4.70587000942620   -2.03736862106118   18.26390890061530
H         4.39009419910478   -2.52484184781924   17.34204399004884
H         5.28225973192956   -2.73235527284372   18.87618625488959
C         3.45391465844714    1.78173524967799   15.72694285071793
H         2.86327286933222    2.66667900207266   15.91000974721977
C         3.00243943755312    4.32120182643797   23.07618228551611
H         2.89660213174381    5.26592630775395   22.56731157633599
C         2.53696410061299    4.14105887812758   24.36425400581941
H         2.05831844046591    4.96316785530280   24.87344131973043
C         4.97976849272165   -0.48386370169218   15.24922649128326
H         5.58714613327086   -1.35889466428149   15.07264292899381
C         3.48756844120588    1.21993764425439   14.46100336870553
H         2.92219023084453    1.66790933334247   13.65790273868956
C         4.23912834338062    4.08855293230391   20.20162218344926
H         4.63817762678184    5.00966410294674   20.62623976495301
H         3.24440667724925    4.28328192278433   19.79433067443860
H         4.91017847688889    3.74189848821029   19.40985424496169
C         4.24988425260481    0.08825310338139   14.22232437914424
H         4.28234411554681   -0.34651764634570   13.23482307106663
O         3.33361689480158   -2.11661522397555   21.76042773984286

