43
CSD_code = KEZNOU | q = 0 | S = 0 | Stoichiometry = C17H14MoN4O7 | MND = 9
Mo        9.15866646745015    9.46926788393661   -3.03599104562929
C        10.01110428145993   11.49481795578263   -2.37802905306537
C         8.87837845448466   11.74231928322022   -3.20308886887322
H         8.84381714693883   12.35951199873988   -4.09237742659540
C         7.73306183974967   11.24395301750684   -2.53319621252751
H         6.70800560046026   11.40900968989247   -2.84347539726178
C         8.14022881891720   10.69459259773581   -1.29851399233449
H         7.48023290467717   10.36566730896180   -0.50502703488570
C         9.53633552040356   10.82952478755832   -1.20250411434793
H        10.13127186455276   10.66130664953287   -0.31429423224977
C        11.39128512273737   11.90080626359098   -2.58675780139592
C        10.45709029810415    9.00705609825190   -4.39324955230926
C         8.15584251898579    8.86815069899802   -4.58953749387819
C         8.50722183444528    7.68785084056260   -2.63529032808074
C        10.81745376353623    8.29191473913837   -2.01304773705845
H        11.16503408912043    7.38120819024785   -2.49494528192857
H        10.50906370456942    8.02356576158586   -1.00372005502651
H        11.66769996119078    8.96945775266236   -1.94196632806578
C        14.47005067183908   11.17625937824010   -1.05765337106654
C        14.07653310469104   10.25685816290157   -0.05710598157982
H        13.02896043470559   10.01396515613224    0.00379303832874
C        14.98371991576005    9.69820919412864    0.79504468134013
H        14.68380404001149    8.99570189507115    1.55722326023161
C        16.34174306715919   10.03694104453719    0.68744319508591
C        16.76593930912360   10.92838711221576   -0.27557874872384
H        17.81297427314660   11.18611736303428   -0.35529069361123
C        15.85095867142944   11.50478293484728   -1.15202585862166
C        11.74909740421494   12.84711125938147   -3.69946436506584
H        12.37564717745076   12.34225547839243   -4.43653797848660
H        12.30918355109612   13.69802012989474   -3.30878311634045
H        10.86493467220742   13.22520314789000   -4.20048568255011
N        12.24650721689251   11.39630850322488   -1.76722982982151
N        13.55035762021020   11.70768077474453   -1.88211770910441
H        13.88724683237922   12.35668330678883   -2.59981541939973
N        17.29291613859154    9.45138989468775    1.58932579244963
N        16.36441528818436   12.41891562665710   -2.11630160350073
O        11.24076206903841    8.77969070250121   -5.19639565531707
O         7.60192253508166    8.46555509019354   -5.50936863590538
O         8.11848588733031    6.64063651461778   -2.38827944325858
O        16.86867684375492    8.67411150625168    2.41985749686691
O        18.45580026275127    9.77212604402445    1.46921695304152
O        15.57735356221685   12.94955986050087   -2.89660907661135
O        17.55431525894982   12.63984840122869   -2.12444929285926

