85
CSD_code = KEZVIV | q = 1 | S = 0 | Stoichiometry = C43H38NOsP2(1+) | MND = 8
C         6.02839691306204   15.12997303415523   20.12146263581620
C         4.67104935244214   11.46502137585295   21.56109700718005
C         4.59694112606638   12.66745348851762   22.24874357775609
H         4.39138117528952   13.57189242113154   21.69422711779757
C         4.77628852474707   12.69435853944283   23.62122701619578
H         4.71274377802986   13.63130432088980   24.15383211820446
C         5.03691884714001   11.52200474984035   24.30953766180676
H         5.17766137399101   11.54232625510200   25.37937448953696
C         5.12188647156556   10.31906346701784   23.62417604681986
H         5.33000665963954    9.40549965235754   24.16016231031035
C         4.94298124879941   10.28700258635423   22.25476018259993
H         5.01078147885941    9.35029835164000   21.71908938158601
C         6.00655714813989   10.50257158986139   19.35054203519611
C         7.17455021809833   11.26218871441944   19.36102044835160
H         7.10745159042271   12.32303993183403   19.57416213301809
C         8.39602808063806   10.66990733915527   19.10714168848790
H         9.29830148269565   11.26306107044829   19.11559034053890
C         8.46165229672718    9.31077899079819   18.84013330734191
H         9.41363373845071    8.84620052496530   18.63445002244378
C         7.30558004310176    8.54933099158072   18.84191242644621
H         7.35651228815136    7.48955703363580   18.64224829830210
C         6.07857289154815    9.13781991965723   19.10071739683036
H         5.18417281685224    8.53136349153128   19.10468353298883
C         2.24016418963676    9.90117694947796   20.56408190079729
H         2.34127023295753   10.39697388180263   21.51835566222631
C         1.20691883191288    9.00441999503702   20.35264312535568
H         0.50683454376715    8.80003535041620   21.14845524191862
C         1.06891135023620    8.37042301631815   19.12891252815451
H         0.26321849960678    7.67022608313678   18.96998021474777
C         1.96609762571603    8.63835643613199   18.10628541265501
H         1.86117513825084    8.14764487110151   17.15011776597089
C         2.99598929001229    9.53784114178215   18.30940026824266
H         3.68691648056601    9.75692857042807   17.50762988977726
C         3.15072993281533   10.16646725702500   19.54537997461467
C         1.57676098718846   13.70515771090410   20.82564308143420
C         2.04014768407293   14.47175763501965   21.89494691091480
H         2.72934151096315   15.28463776712368   21.70459189854777
C         1.60676378045349   14.21357543021770   23.18036940518412
H         1.96107239360109   14.81882026724725   24.00095922686230
C         0.70960285113737   13.18338301362224   23.41517288558130
H         0.37010317934873   12.98067717053848   24.41923018750250
C         0.23924946536223   12.42573994074936   22.35697459897160
H        -0.47241489977279   11.63342225769177   22.53418144508265
C         0.66782177506105   12.68242374883850   21.06515254110115
H         0.27685896721711   12.09664123831539   20.24744121236072
C         2.05035487226243   15.92355434567854   19.20655855356590
C         0.88314822599409   16.48424924821179   19.72604540372479
H         0.10810106420419   15.83910630495459   20.11672057635471
C         0.71992074804033   17.85611524233650   19.73849036895878
H        -0.18671814174892   18.28462965593926   20.13780552899948
C         1.71587847442681   18.68144679012375   19.23760266814052
H         1.58464688751018   19.75248399639869   19.24834398623039
C         2.87740855653494   18.13049330035352   18.72410627904481
H         3.65296562270945   18.77231981377476   18.33326255565928
C         3.04377989510560   16.75589553052235   18.70758947923107
H         3.95067808189049   16.32241343951117   18.30841395376095
C         0.89827193620977   13.59121862145993   18.03690051015779
C         0.72388029121515   12.22378972612593   17.83050521774273
H         1.37568127483454   11.52586813557967   18.33704546103160
C        -0.25716033817438   11.76303789793668   16.97342026904340
H        -0.38777157925425   10.70045649111801   16.83057103601962
C        -1.06195397764668   12.66462992953648   16.29480649690299
H        -1.82623943590465   12.30825242631422   15.62150064850226
C        -0.87364198263835   14.02481800369298   16.47273911198634
H        -1.48784456214965   14.73009060938191   15.93350369084488
C         0.10211996901139   14.49139154946164   17.33750864081860
H         0.24153102975627   15.55550954814727   17.45959892259042
C         5.06998460032535   14.40926819819699   16.53788280312167
H         5.43074074795405   15.42346452766826   16.44933463549406
C         3.75233923647794   13.97544996004759   16.28052536311621
H         2.92584530093206   14.60344872635617   15.97966134288010
C         3.73325186143305   12.55368513830295   16.33371690496719
H         2.91341162916938   11.93078832880150   16.00609767045996
C         5.06195689808040   12.12079399145572   16.57692812198940
H         5.41982274399384   11.10183546039218   16.54016014685754
C         5.88227531753508   13.25970139776005   16.73168220983410
H         6.95837785430482   13.25164320127717   16.81516007185855
Os        4.28937996801101   13.30963374344939   18.42081047794463
P         4.46951652759332   11.40687353299773   19.74841710232505
P         2.23438096274876   14.10801980883428   19.16737909493978
N         5.28753771821358   14.39101751359746   19.62141103269867
C         6.90285754010443   16.02077589111035   20.82345879341299
H         7.13352574074083   15.60951752138484   21.80688589974467
H         6.42656582349972   16.99426260534291   20.94522561257841
H         7.83170926174943   16.14830227332011   20.26732680298362

