55
CSD_code = KEZWAP | q = 0 | S = 0 | Stoichiometry = C24H20N6NiO2S2 | MND = 4
Ni       -1.34147550309412    4.93945806814578   11.89525104631829
S         0.71503775621205    5.40937330352752   11.12734973156432
O        -2.43424313937670   -0.02920465643466   10.85525058740429
N         1.60510626979918    4.30259410004377    8.93421710146407
H         2.32883259173755    4.97724665110097    9.14599260538217
N        -0.28568079091829    3.30208984166374    9.85650920139381
N        -1.19728079971642    3.35621752444750   10.84717821170613
C         1.78351938507590    3.55412018364592    7.77565288378508
C         0.76218892801631    2.79639534880236    7.20894685441355
H        -0.20872766569449    2.78656903736094    7.67511936711213
C         1.00054259798493    2.07673056469854    6.05293859198141
H         0.20283740903513    1.48973266426690    5.62250372812799
C         2.24397779148382    2.10803629263179    5.44402617353056
H         2.42335368828079    1.54175163004408    4.54289669904098
C         3.25493391866089    2.87878255682722    5.99470929357104
H         4.22517136517062    2.91814749726757    5.52219549124452
C         3.02956515412082    3.59971735383016    7.15085660165423
H         3.81898247620108    4.20122124595539    7.57933162334576
C         0.62558835434737    4.22792435675833    9.86289907686040
C        -1.83398540657109    2.24763765162474   11.10272127742881
H        -2.63649236371998    2.26572722747338   11.82881379103525
C        -1.58804201824840    0.97642526996350   10.50337082880735
C        -0.63167482846466    0.48349348379570    9.63583118266042
H         0.17383828962667    1.03507293768605    9.19998107726326
C        -0.92485532833823   -0.88115826629639    9.45977314223750
H        -0.39033198833289   -1.58091531805403    8.85082378861138
C        -2.02959029080146   -1.13254759132416   10.22245363384402
H        -2.59557719647667   -2.02887060470731   10.38577993686157
S        -3.39775737039282    4.46950035220557   12.66349508023768
O        -0.24887440255129    9.90820487161894   12.93485822229163
N        -4.28788894026731    5.57644189922582   14.85644571927592
H        -5.01153692362539    4.90170735248495   14.64467451754505
N        -2.39698589250675    6.57683436932955   13.93418899105346
N        -1.48539218917629    6.52260121645456   12.94351313809281
C        -4.46643905216125    6.32493951915512   16.01495618979915
C        -3.44527325829745    7.08290502604225   16.58163296170933
H        -2.47434027116098    7.09287868136515   16.11550216218883
C        -3.68381853043231    7.80260361849219   17.73758110808617
H        -2.88624083402427    8.38977691744941   18.16800778932360
C        -4.92726548129151    7.77107865297349   18.34645703568694
H        -5.10677682519102    8.33735947826483   19.24755884720413
C        -5.93805972237364    7.00010991842475   17.79578650282347
H        -6.90831767959996    6.96060551079074   18.26824154747322
C        -5.71250665795874    6.27915465439948   16.63969147254545
H        -6.50179940208897    5.67750447323592   16.21119611187358
C        -3.30829338935554    5.65105445368626   13.92783611185222
C        -0.84878071798914    7.63119066549127   12.68776614732068
H        -0.04630170144801    7.61303494495090   11.96163096818549
C        -1.09491020594574    8.90248585413682   13.28689056640127
C        -2.05137763275962    9.39542421089273   14.15432189927344
H        -2.85682179104080    8.84379352341463   14.59023338860649
C        -1.75841710162655   10.76014923523672   14.33017609035624
H        -2.29306200036918   11.45992073840487   14.93900356453284
C        -0.65371042689818   11.01158942261978   13.56747004067233
H        -0.08787025546583   11.90798208450863   13.40401029693759

