33
CSD_code = KEZZOH | q = 0 | S = 0 | Stoichiometry = C15H11Cl3N3Sc | MND = 6
Sc        7.92326484993445    1.81289899816779    2.69426640884494
Cl        5.81195075972878    1.90774685393666    1.64761856139883
Cl        9.25156893176414    2.26030456780241    0.89741101379360
Cl        9.60267042518667    1.57330751000886    4.32278793687246
N         7.63752542005646   -0.46137729707001    2.84605257528531
N         6.56533343047776    1.36987609188325    4.44662361536316
N         7.38767669504453    3.79307671867079    3.72962127154519
C         8.31289427418235   -1.33602934712494    2.10625983662817
H         8.92201165225188   -0.91653289504602    1.30746940872452
C         8.25934092415214   -2.70552045778989    2.32487183772348
H         8.82428559657086   -3.37854570659041    1.70014684676622
C         7.47527084404139   -3.17794982100567    3.36452248834082
H         7.41714199140895   -4.23529266291701    3.57537667218224
C         6.76469826314451   -2.27218490220207    4.13464522692000
H         6.16128679551689   -2.61972224862471    4.95764301659112
C         6.85867069641646   -0.91224517318608    3.84644143301485
C         6.12884568002945    0.12140193663605    4.61497405819223
C         5.04100007791006   -0.15391129538496    5.44368826577870
H         4.66572233407422   -1.15739301504292    5.55942446331923
C         4.42136283077428    0.89984043751941    6.09458315386868
H         3.56640422281279    0.71724239259346    6.72815102683827
C         4.89610760561195    2.18960909848843    5.92337510249043
H         4.40688815723573    3.01564097621764    6.41263496886519
C         5.98971641230236    2.39140436046857    5.08126830689410
C         6.57774070894919    3.72100435296703    4.80169957283370
C         6.32941924723555    4.83702131771932    5.59806078860520
H         5.70192122908559    4.76110012195435    6.47122768181896
C         6.91744962186062    6.04735670560428    5.26973223363341
H         6.73940751807179    6.92167123819280    5.87754790768628
C         7.73662598490072    6.11515021359648    4.15478321465129
H         8.21041745586910    7.03902611796682    3.86436626613983
C         7.94590755936294    4.95875934344422    3.41667516835820
H         8.58577180403284    4.96096546816050    2.53584967003211

