115
CSD_code = KIBBON | q = 0 | S = 0 | Stoichiometry = C54H54N2NiP4 | MND = 4
Ni        4.92501397968633   15.93013379634337   12.49735837280603
P         3.40449334247177   14.44621628679002   12.98206699417862
P         3.78787650562028   17.13953371961863   11.07115207703631
P         5.73054635005777   17.05143393133543   14.19789912330149
P         6.84502041557487   15.40673301455362   11.57052423792640
N         1.56587917902684   15.60960674745886   11.25291854955396
N         8.26266508439993   17.13601239673883   13.17767394345623
C         2.01787116117353   14.31975052255260   11.73437650675030
H         2.37661497593948   13.67253478164843   10.91088748169366
H         1.18464226513615   13.80603108654397   12.22434965879182
C         2.43468587587066   16.17391289516929   10.23496563993248
H         1.86180988836323   16.87033885179148    9.61420690120693
H         2.86876614915907   15.39340816281259    9.58886062660639
C         7.24629060560121   18.02100716847963   13.71041092755993
H         6.96386897071772   18.79936171795545   12.98052755267076
H         7.63266313990097   18.51132874577759   14.60952168727649
C         8.06168087279756   16.80266292192173   11.77926535300454
H         9.01877544024827   16.47852862791508   11.35927231427330
H         7.68715715307219   17.66361025336631   11.19647355069413
C         0.18210075502782   15.57570749488202   10.82100066138107
H         0.02456954039005   14.93839051437601    9.93670932689201
H        -0.14126712018757   16.58967171903948   10.58461594164965
H        -0.44413763625089   15.20076628480573   11.63067688767740
C         9.59850281373521   17.64170205597683   13.42776616452121
H        10.33123969806907   16.91228946798409   13.08264942728327
H         9.73425144862219   17.77559939808586   14.50104309510405
H         9.79494586535208   18.60180180232833   12.92546778047133
C         3.68840451719367   12.64547616447595   13.14809709636455
C         4.90271266911194   12.13740271741204   12.70606024829822
H         5.64020026336344   12.82109540009145   12.30229814872961
C         5.17530194627995   10.78398675756262   12.78741350106547
H         6.12836541631821   10.40592359645701   12.44573407311211
C         4.22660535790844    9.92432963181918   13.31395299224959
H         4.43239638481752    8.86591857875716   13.38436517367623
C         3.01061824818838   10.42291783868837   13.75698899002350
H         2.27190610195918    9.75060000832485   14.17016824928664
C         2.73951579976150   11.77594909440872   13.67612682779079
H         1.79575171143226   12.16219234131507   14.03619913360567
C         2.46016650765253   14.76206919381754   14.50796384308883
C         1.33103707608009   15.57440556940731   14.50898836548541
H         0.95748078655001   15.96718876654416   13.57515787312546
C         0.70220638414432   15.89154328965441   15.69956801892166
H        -0.17520485252508   16.52318585530541   15.69037852953298
C         1.19386546699288   15.40709974795835   16.89997843657797
H         0.70069670390352   15.65582254676261   17.82885261345507
C         2.32577010021462   14.60701434919852   16.90696449857510
H         2.71891506865116   14.23313310875429   17.84218655121525
C         2.96050080214399   14.29301618127411   15.72019253067223
H         3.85211887182822   13.68030943583808   15.72771678273691
C         2.72336380361712   18.48164876745011   11.70140073286258
C         2.23434996055100   19.51026017755006   10.90391222484121
H         2.51574551451570   19.56746232091683    9.86066583698576
C         1.39550555205205   20.46446527624981   11.44973481590535
H         1.02053004546050   21.26744383909177   10.83025840820096
C         1.03104036375832   20.39442061186469   12.78576178438993
H         0.37385625087317   21.14372977666692   13.20372763061499
C         1.51125971432503   19.36819971389506   13.58133534593892
H         1.23480426216851   19.30860091111419   14.62409665659758
C         2.35987265547786   18.42114195543410   13.03949998471406
H         2.75713357196510   17.62194321111751   13.65157217705094
C         4.58067633053211   17.98304150128332    9.66264176871755
C         4.48202573350082   17.59542581442556    8.33266013405950
H         3.83258244682754   16.78223797143945    8.04652112814401
C         5.22191078586338   18.24633651048084    7.36021816537522
H         5.13731144143669   17.93654697221656    6.32830587918835
C         6.06857578990654   19.28596299413506    7.70107070414191
H         6.64648002498798   19.78775642059378    6.93860755683564
C         6.17352655402645   19.68150840580807    9.02604005278818
H         6.83206300823831   20.49553749672324    9.29655218579634
C         5.43892399128578   19.02996519442422    9.99507829875211
H         5.51038692272744   19.32451860244172   11.03549668796436
C         4.86938504598649   18.28572635244440   15.22717949463709
C         4.08133047667169   17.81806848220698   16.27701685134406
H         4.07284772827905   16.75914705849950   16.49799888602707
C         3.31457140427240   18.68981693282266   17.02395773216660
H         2.71057187157361   18.31218213402775   17.83678344061468
C         3.31503053253732   20.04378821122829   16.72698877778516
H         2.71643630788819   20.72837171810269   17.31062603016000
C         4.07615669714459   20.51472433808111   15.67075488589605
H         4.06766888973932   21.56763723095683   15.42653621153221
C         4.84117444957365   19.64153087331044   14.91870727603962
H         5.41321274082301   20.02074869417219   14.08424481409795
C         6.49313217020930   16.02920429528611   15.50469641065501
C         6.49451756265942   14.65285328039220   15.32473535359951
H         6.02926668705759   14.24586059124868   14.43264408398912
C         7.07861482969767   13.81914070940295   16.26087332787034
H         7.07621180552890   12.74901842310845   16.10782483826789
C         7.66697089513779   14.36251307230277   17.38997433962324
H         8.12657866607241   13.71858182522294   18.12629647377156
C         7.66334520136980   15.73620612154912   17.58052298874455
H         8.11871942005235   16.15773910216665   18.46590315163721
C         7.07868098112338   16.56871494962646   16.64462049283795
H         7.06528916338417   17.63855679155084   16.80536126943169
C         7.97967270698125   14.01203838232889   11.91267560855555
C         8.04776868211449   12.88886648436235   11.09409288674826
H         7.47238423143876   12.85041583540662   10.17934038860884
C         8.85347383001431   11.81967548227264   11.44267636467330
H         8.90446078692389   10.95472192803773   10.79595382974372
C         9.59165419602506   11.85309314877173   12.61394122782751
H        10.21670877086943   11.01430838677405   12.88477338396378
C         9.52167642841106   12.96535161935447   13.43718463864989
H        10.09141749937882   12.99658192167276   14.35526467940393
C         8.71783869582814   14.03530353415022   13.09320774546411
H         8.65133648129987   14.90068593017786   13.73588080360884
C         6.74143067686407   15.28557158175697    9.74950158856055
C         7.60844320389387   15.87746590056536    8.84086626925223
H         8.43908372772376   16.47666481618252    9.18093368289381
C         7.41191943598925   15.70688016782227    7.48107097619310
H         8.08711779339398   16.17812684450356    6.78098381399779
C         6.36330644822257   14.93455476250300    7.01301561877662
H         6.22102372635935   14.80045002012325    5.95034244284358
C         5.49295010713298   14.33961648486464    7.91219478487403
H         4.67045493230543   13.73682320700011    7.55129504584222
C         5.67779557217437   14.52547116568196    9.26788406971580
H         4.99458576421249   14.08569222256446    9.98712159791955

