138
CSD_code = KIBBAZ | q = 0 | S = 0 | Stoichiometry = C42H86BCl2O3Si3Ta | MND = 5
Ta       -1.70790386071313    3.32485986127319    4.57379948449759
Cl       -2.76368456984412    3.21798870085413    6.87896288504356
Cl       -0.04869626108658    4.13061589096973    6.46043706418927
Si       -2.98746217605549    6.73610852234155    4.87595610353240
Si       -4.06130892510561    0.89933431349905    3.65150484664745
Si        1.23789764644063    3.30027479665629    2.66110652753627
O        -2.28315254028188    5.28594266520922    4.87278657274529
O        -2.96969589303817    2.01741839177952    4.15517916888028
O        -0.17902289597856    3.27745250873948    3.49992871693970
B        -1.07356554311317    2.63298369646717    6.52529957841738
C        -0.54933830069385    1.40836435717943    7.35339411815022
C        -1.42658078903329    0.54897806898871    8.02688712384879
H        -2.48080618728640    0.78489278338297    8.04231814830115
C        -0.97340362239333   -0.57023651299389    8.69809505784195
H        -1.67761091284065   -1.21146482363842    9.20774022382736
C         0.37890136632549   -0.86668867666366    8.72543165330474
H         0.73470749764884   -1.74157018785789    9.24903752652150
C         1.27218670892459   -0.01936906631266    8.09127394044463
H         2.33123534734705   -0.22896089004273    8.12431664790994
C         0.81465937269599    1.09855374125806    7.42185483200858
H         1.52530584689250    1.76084973265826    6.95201965304242
C        -2.56520546689880    7.55215946585225    3.13981701983474
C        -4.93002994284468    6.45563264963572    5.04171297035677
C        -2.25619799030666    7.75221674139259    6.38825936330437
C        -5.77732047549032    1.10124939825352    4.58176958118706
C        -3.23125509033603   -0.83780932042901    4.03453555508652
C        -4.21996051820794    1.29624676614277    1.73791019939493
C         1.82708065946385    1.43200390277631    2.64484758087238
C         2.51425220064631    4.46061606804953    3.59525302540404
C         0.80402819806482    3.99197196799668    0.87729931982388
C        -2.68175794191458    6.48692848556772    2.04280911962192
H        -2.25696067585336    6.85521530328105    1.10839470011711
H        -2.14160468620744    5.58546407508505    2.33762342790664
H        -3.71450813060353    6.21908245559791    1.85132551337468
C        -3.45574083666618    8.73971278542385    2.77054320240511
H        -3.12619611117187    9.17091844112621    1.82428785278409
H        -4.49473125879250    8.44854801793310    2.65602409226337
H        -3.40315940094102    9.51509851618335    3.52945243967232
C        -1.12037299165944    8.05787316783104    3.11841480165791
H        -0.83498622293745    8.34734231374877    2.10557258952279
H        -1.00477534253257    8.93252292096471    3.75169756301309
H        -0.43896838224818    7.28653977454650    3.46097931599179
C        -5.68844356468440    7.71312991576433    5.46851599492513
H        -6.76298304350191    7.52638854085752    5.44368735403587
H        -5.42907537474732    8.00183561254878    6.48261431192068
H        -5.47633612184216    8.54712741326833    4.80618070818277
C        -5.54111497875555    5.97103720236661    3.72235422297100
H        -6.57588854333451    5.66313364304374    3.88268246278883
H        -5.54936699151158    6.75385341783178    2.97085288857235
H        -4.98536737234020    5.11934439195557    3.33731388372277
C        -5.22127788488138    5.35120395589143    6.06052977931292
H        -6.29773969019676    5.21263816493824    6.17179510689523
H        -4.79347180202291    4.41617604786321    5.70856843742484
H        -4.80760680722998    5.57162420660648    7.03784602991322
C        -2.63191264887608    9.23402220249419    6.33514794297750
H        -2.25007877046335    9.74494223437510    7.21962118471466
H        -2.19858959432447    9.71519474146872    5.46297475065143
H        -3.70680380113761    9.37585660342174    6.30337995599732
C        -2.76878849224326    7.17524195333281    7.71236592046020
H        -2.27298491639376    7.66534442918024    8.55095963173397
H        -3.83747213614686    7.32959071918794    7.82713843708493
H        -2.55728918206841    6.11060583781323    7.77394025101755
C        -0.72685538863143    7.66738079268973    6.44873446575692
H        -0.36707241326827    8.15261232238978    7.35672441082837
H        -0.40128180010592    6.63444048356410    6.47051873795278
H        -0.25751270560683    8.15733273070417    5.60401191116304
C        -6.55564396559619    2.31878977847728    4.07197278974244
H        -7.43986214065992    2.47503900698291    4.69044107640342
H        -5.94568744103042    3.21328792921706    4.12602877467529
H        -6.89226881857688    2.17913900405956    3.04933850334901
C        -6.66605020003599   -0.12860312442643    4.37270917564225
H        -7.65144479135978    0.05267549624624    4.80180898575952
H        -6.79403391536700   -0.35066275233384    3.31784647279289
H        -6.25169229236118   -1.00506128405321    4.86032748962945
C        -5.59977311602072    1.30975145085724    6.08955437765642
H        -6.57711880487604    1.37154461771147    6.56868080506560
H        -5.04959094018735    0.50212276386803    6.55644482519120
H        -5.07397379752041    2.23724911371376    6.28479500662834
C        -3.84176351090881   -1.97676788529402    3.21451372661293
H        -3.36846878232775   -2.92086779351496    3.48341504669322
H        -4.90716135687574   -2.06992461492894    3.39834201929536
H        -3.69362231642880   -1.82297497179203    2.14991142947162
C        -3.36041232154427   -1.20168735874129    5.51687696314743
H        -2.80568271266530   -2.11782397097849    5.72139365047682
H        -2.94117132577707   -0.41440068112095    6.13674198296238
H        -4.39297602376742   -1.37696923294280    5.80062384316424
C        -1.72853024163554   -0.78705403556470    3.74432456024981
H        -1.23906234286584   -1.67302678885063    4.14779103534546
H        -1.53189308910233   -0.75783887108841    2.67947508369889
H        -1.28332614967557    0.08923762164215    4.21393191939553
C        -5.38966354828724    0.59847450115870    1.04229077133515
H        -5.36771756480990    0.81441589733321   -0.02590325341686
H        -5.33337760094075   -0.47866339051804    1.17014709806674
H        -6.34565120630566    0.93778465736637    1.42861928800140
C        -4.35363165864941    2.81049380360973    1.53310131878198
H        -4.22779026814501    3.06051572504229    0.47956290254502
H        -5.32712405979716    3.17124156130150    1.84620759556893
H        -3.58614101348713    3.33799044485488    2.10351459387025
C        -2.93204888875049    0.87321608519496    1.02830209932078
H        -2.92976894727150    1.23534241961970    0.00001985310766
H        -2.07624458271078    1.29821505688989    1.54521684635364
H        -2.83108866531814   -0.20739522405095    0.99743425509475
C         1.67627318855301    0.81957497339809    4.04278908326828
H         1.76774874409675   -0.26477390345763    3.99096022761406
H         2.44173233166076    1.18221866508256    4.71814529854318
H         0.70251904056945    1.06033941403585    4.46760661096987
C         3.27759074149659    1.25416531566089    2.19271086162523
H         3.52013829195635    0.19294264421994    2.14043229641044
H         3.43946743840714    1.68672653823054    1.21021212621260
H         3.97082458327933    1.71729552943919    2.88752637522153
C         0.94474533117939    0.61184199021120    1.70083961599923
H         1.16918895234424   -0.44993195227316    1.80314910372766
H        -0.10041618070831    0.76505419697015    1.94468612068136
H         1.11021536631730    0.88465950036209    0.66318895255780
C         3.04987020724550    3.79438810371433    4.86798678910828
H         3.65915350047800    4.50456900361708    5.42713419238073
H         2.23910480611931    3.46933985993217    5.51001077877784
H         3.67888401181248    2.94212613004456    4.63024478875658
C         3.73310118580901    4.80619050614718    2.73353169572073
H         4.42339618209641    5.42380790366593    3.30756580546728
H         4.26129785506492    3.91082897614516    2.42083135695701
H         3.45412211077862    5.36212709294366    1.84447638212428
C         1.83484436934472    5.77248058963036    4.01203913584928
H         2.40672703241523    6.26252164478658    4.79916475659772
H         1.76974753146539    6.46129072194701    3.17671825917608
H         0.83102707662425    5.59004182634408    4.38649250952884
C         1.85285527617951    3.62350057786379   -0.17490382857620
H         1.59423643357278    4.08076981365771   -1.12996949978554
H         2.83825475820122    3.97745191764869    0.11251743131524
H         1.90821160035241    2.55016243120742   -0.32666217931084
C         0.68274849551808    5.51910387551294    0.88778071937041
H         0.28488009272239    5.86513159458322   -0.06685058233189
H         0.01278973931874    5.84463564488278    1.67437171175394
H         1.64851146203712    5.99403224974040    1.02759558601022
C        -0.55357486475075    3.44601581344244    0.42374000831156
H        -0.88512350851736    3.96041844448138   -0.47830192900439
H        -0.49667275276683    2.38675071558151    0.20034901402907
H        -1.30103890571237    3.60007736137866    1.20036962511418

