72
CSD_code = KIBHUY | q = 0 | S = 0 | Stoichiometry = C29H37BrN2P2Pd | MND = 4
Pd        2.49533552107232    0.79544153674897    3.78696853045782
Br        4.73412392321763    1.75484305420130    4.08227172494457
P         1.87499308715763    1.76217514615616    5.73865891308572
P         3.02189750891207   -0.15568232481987    1.80504665791278
N         0.03080954844094    1.48563019321645    3.00308379788807
N        -1.48361624290263   -0.68210858225527    3.81300952923016
C         0.58729658524449    0.42163197600962    3.50016764074577
C        -1.32048109815826    1.53721833367437    2.89514770153141
C        -1.95092896372021    2.69665190310065    2.39525598819978
C        -3.32937806688209    2.74099384014837    2.36836234570073
C        -4.10234080212436    1.64002726980847    2.81886658938318
C        -3.49997318620118    0.49930125146804    3.30788171337068
C        -2.08892923746835    0.43411365752342    3.34283380120991
C        -0.18183145109848   -0.70766689829199    3.88943635933451
C        -1.07712052175531    3.82588544597271    1.93028703276861
C        -4.04559809808275    3.95916234986499    1.86001070774389
C        -5.59945261827974    1.74805631744245    2.75941408481992
C        -4.27071351284178   -0.68096337159906    3.82083436809767
C         0.50935398341566   -1.93046954255706    4.40281879797701
C         1.89760290719165    3.55878011771145    5.40684099934658
C         2.89280958062115    1.65153478720299    7.25672722688171
C         0.18365378143957    1.43640099305293    6.32882558344296
C        -0.06081993104583    0.25840851359788    7.03005212822774
C        -1.34992600466576   -0.10360969601449    7.36826817460672
C        -2.41510159827062    0.70021016326594    6.99664473598497
C        -2.18246718842281    1.87038104061244    6.29604890154775
C        -0.89156006366419    2.23803550455079    5.96164213259193
C         4.26705536054463    0.65394337843200    0.73588242183140
C         1.71357822260577   -0.56750661373573    0.58648787010632
C         3.79757861079190   -1.76068391989888    2.18511684618277
C         4.08276784863725   -2.02714990323909    3.52164136862232
C         4.67975150226383   -3.21979812542247    3.88610060476642
C         4.99108106129722   -4.15775760778686    2.91562322144531
C         4.70993570998975   -3.89900426603996    1.58349586807205
C         4.11810894876470   -2.70439851099261    1.21631276135776
H        -1.24166557521309    4.72275480022912    2.52771627675127
H        -0.03578446411054    3.52751483338231    2.02933646723802
H        -1.27219122895128    4.06769177315525    0.88633486710734
H        -4.79178944355393    4.29340721695720    2.57894432335219
H        -4.56189201433228    3.73283493996594    0.92672108060565
H        -3.35866875163608    4.77756703819870    1.67578487269821
H        -5.95632668724034    2.48900564979315    3.47543845138500
H        -5.92155312136436    2.06277428444397    1.76836160040860
H        -6.07548266905694    0.80116779195339    2.98691607773815
H        -4.93565251155800   -0.38797989678319    4.63193475940258
H        -3.56660364058994   -1.41991137578013    4.19184620776959
H        -4.86783500148311   -1.13301496075874    3.02936175029925
H         1.38205204407519   -1.63050294880536    4.99648386559543
H        -0.16778689304223   -2.52627278822421    5.00809448742389
H         0.86338743547580   -2.53919825566860    3.56807109027541
H         1.38183530787807    3.75111629516724    4.46210178089113
H         1.42739726476169    4.11406564001304    6.21906406074484
H         2.94061369198949    3.86549317419127    5.30181187479608
H         2.47580086091981    2.30341304834026    8.02434433088809
H         2.92712362424164    0.62727133145842    7.62491154811295
H         3.90695661862122    1.96673696122699    7.00812536419267
H         0.76812465567758   -0.38301451981029    7.30030728529620
H        -1.52708499266413   -1.02120666063298    7.91014018289857
H        -3.42463137650042    0.40922358369161    7.24504795510594
H        -3.01007615194142    2.49448662967084    5.99159104020140
H        -0.72704137976562    3.14381708112351    5.39744392303351
H         5.16897223205696    0.84225158856999    1.31831420965312
H         3.86746071558052    1.60951431898259    0.39255507620800
H         4.50174999960552    0.02135685280956   -0.12013456815488
H         2.13655594934529   -1.00575559949348   -0.31600535918673
H         0.99999048062633   -1.25931509494887    1.03252619623280
H         1.18688691952517    0.35176265041959    0.32791880565413
H         3.84016811363878   -1.27523260090594    4.28425768585675
H         4.90435473295293   -3.41836877222413    4.92358638502676
H         5.45540432401831   -5.09157508980943    3.19600425808073
H         4.95555197365980   -4.63134310902524    0.82792100384884
H         3.90578385236856   -2.50866322213192    0.17465365320377

