39
CSD_code = KIBKOW | q = 1 | S = 0 | Stoichiometry = C12H18BrN5O2Re(1+) | MND = 6
Re        2.00460015629737    3.39580190402220    9.61274394550383
Br        2.15487890983610    5.12139083673230   11.31747391462315
O         0.28995138007019    3.69282860983091    9.20284769194205
O         3.53185212035155    2.76983251058720    9.70772462157778
N         1.26798037299725    1.75934215200806   10.75945148153335
N         0.57800290822725   -0.31504525822429   10.72387792623140
N         1.47787323895274    1.86417097476603    7.87922057189627
N         2.58167711934730    4.50156363779171    7.89265193276780
N         3.03466771186145    4.41975037966044    5.75523470778599
C         0.79269248152371    1.46286739562382   11.99430756780781
H         0.80177883917968    2.18904946415979   12.78247904299142
C         0.36230848782276    0.16979918668924   11.98417737769564
H        -0.06669726170938   -0.42995907031822   12.75916408286165
C         1.12491351251467    0.67676690174074    9.99838126060169
C         0.29640670805635   -1.65693508113585   10.28692830688760
H        -0.15611629246684   -2.20795679536417   11.10815832599315
H         1.21484349286855   -2.16441352899711    9.98896019566782
H        -0.39861095703694   -1.65392196841460    9.44559539421095
C         1.59581711488692    0.57859978581065    8.57111005278531
H         1.04583993475197   -0.21423151455993    8.04586952632659
H         2.65658172485919    0.30274485202442    8.59958457974224
C         0.13252374490716    2.17173346537104    7.40918064803125
H        -0.42970794042333    1.26890455852107    7.15157716302404
H         0.20509203216589    2.80351547639468    6.52165993707814
C        -0.62933866799194    2.97650225020403    8.51016884212491
H        -1.38511500398480    3.62338164875544    8.04412813413169
H        -1.15219330753368    2.28579333484312    9.19398149226737
C         2.52136096188347    2.20363196127107    6.90594497562260
H         3.46870209369887    1.78158896582607    7.26199953420563
H         2.30404071217675    1.79211771076025    5.91129490942825
C         2.69396340844913    3.69770997099467    6.83689945609995
C         2.84733664788835    5.76534904207445    7.48062036487445
H         2.82000055582277    6.59138375426124    8.16278105300877
C         3.13340968591270    5.72552205672282    6.14840639733264
H         3.39791190705532    6.50666665930458    5.46697790191120
C         3.29405341273182    3.92587860001369    4.42850242089695
H         3.53739548300102    4.76487612394137    3.78062501991430
H         2.41736752228214    3.41698009322287    4.02430876259871
H         4.13655504876712    3.23311895308667    4.43570048001510

