95
CSD_code = KIBMOZ | q = 0 | S = 0 | Stoichiometry = C33H57N2RhSi2 | MND = 6
Rh        3.02320111614348    3.76717145227684    1.63399652835186
Si        5.31249948902132    3.24107845286464    2.14824518335859
Si        2.15631977753057    5.77635613526073    2.59236656414363
H         3.96151142255410    4.78268615359289    1.03189837869970
H         3.34887547936440    3.66610201232134    3.10205822146073
N         2.30186520378275    3.66562928044041   -0.34431258465739
N         1.50411864308618    2.37720990209529    2.17249599301815
C        -0.68399755409249    1.29448018746813    2.00382609576760
H        -0.24543752635272    0.38391433319458    2.40875214958326
H        -1.37906613559260    1.02944798158056    1.21134797435061
H        -1.24509879897814    1.77594257091670    2.80365363869951
C         0.38880848627434    2.22712884147116    1.49077114266575
C         0.11649144139582    2.85631015575443    0.27089541994392
H        -0.89283982913809    2.74690350645018   -0.09850656508638
C         1.02699448528166    3.42839602674663   -0.61413772936883
C         0.51256861715764    3.70165716345220   -2.00948502705947
H         0.98227289835256    4.58781859660366   -2.43211618186202
H        -0.56561842063436    3.84147818779192   -1.99736013578984
H         0.73967654106633    2.86218430033266   -2.66643439295765
C         3.17446684225705    3.76885117851633   -1.46074925613408
C         3.56468306743982    2.58593695158269   -2.11169888717126
C         4.45639090686611    2.64632489836070   -3.17222836742990
H         4.75581790720027    1.72549984875758   -3.65312434062190
C         4.95014177058406    3.85434781216521   -3.62370588788119
H         5.64292260172871    3.88724160545136   -4.45124125092933
C         4.53055087705482    5.02007598157797   -3.01459506460058
H         4.88539872430567    5.97598912797699   -3.37332405541785
C         3.64333488538703    4.99545593896899   -1.94785273215537
C         3.19815173019954    6.29897597137898   -1.35889053142804
H         4.02967128854929    6.77831534280653   -0.84365163521370
H         2.39321272591939    6.14563795262661   -0.64831543906752
H         2.85868823983278    6.97175768973689   -2.14593977698396
C         3.03146406733664    1.23730344042095   -1.71542897809342
H         2.42081673378059    0.82752887225485   -2.52136662942253
H         2.41840851003142    1.29236506234111   -0.82157826897375
H         3.84970602399994    0.53978980350044   -1.53867984594927
C         1.72575491854794    1.53039076093275    3.28795780921816
C         1.20718007786162    1.80704881793090    4.55747958962724
C         1.50171707917706    0.95040118743123    5.61037627902293
H         1.10560294073735    1.17575591916380    6.59045963580472
C         2.27349722360016   -0.17867592432147    5.42266375223662
H         2.49043634683080   -0.83504598525201    6.25199284484782
C         2.75819188191750   -0.46768353039932    4.15999691143656
H         3.34908736693880   -1.35846936070002    3.99969765757233
C         2.49084979271295    0.36955502446599    3.09019727979698
C         2.99467473326803    0.03984457121097    1.71764025798467
H         3.73196904757543   -0.75882973228584    1.75334079623389
H         3.44938844415632    0.92450671434695    1.26425502249287
H         2.17133053551111   -0.28365917961884    1.07766342270756
C         0.32361505195069    2.99071291605282    4.81533855426671
H         0.37664738479084    3.70215777212753    3.99738822735268
H         0.61794871270916    3.48657608721497    5.73794571571007
H        -0.71162336874082    2.66640001981973    4.93563222455629
C         5.62827323348918    1.85118569992316    3.46871376777035
H         5.13530675866658    0.92530908064376    3.17964205706912
H         6.69866967440584    1.63898929292961    3.47959046384771
C         6.35318294724399    4.76325160747602    2.73379824035016
H         6.41484906794875    5.48688301697899    1.92259953962947
H         5.83011720635754    5.26189200032486    3.54878693464917
C         6.06527408077286    2.52609209976652    0.50336211058728
H         6.79344512883251    1.75385125319462    0.75456846477737
H         5.28587432611929    2.03867349177548   -0.08162441068319
C         5.18395461005858    2.21225459951355    4.87970943793034
H         5.66382111043714    3.12726802455754    5.21638875950800
H         5.43372876364351    1.41488813921502    5.57819399924943
H         4.10816028792429    2.36217868907642    4.91306121670152
C         7.76493298539182    4.40994742002286    3.18774352652682
H         7.74205748871744    3.76983747959840    4.06485336497776
H         8.32270455683741    5.31028726301834    3.44290068015026
H         8.30720439958091    3.88875106207043    2.40283533416301
C         6.73009670040316    3.57557912646872   -0.37618258304777
H         6.02319757082647    4.35960275189891   -0.63163752169225
H         7.08544852401612    3.12983865624362   -1.30427075011302
H         7.57722181291279    4.02873087740752    0.13104792693496
C         0.25457474990144    5.87319882206826    2.14338621536153
H        -0.17702908194621    4.87227721480336    2.12379555514219
H        -0.24640331246031    6.41607318039925    2.94447629581985
C         2.35119249522839    5.84092601693012    4.53791142423669
H         2.48624144929060    4.83978624377874    4.94094530716749
H         3.27955461277741    6.37228833782445    4.74659654064555
C         2.99929571510133    7.43498884528372    2.01504479247358
H         4.07969796208326    7.32689628263209    2.10364155272193
H         2.79079523252201    7.61902791538926    0.96492553768372
C        -0.07496874298375    6.54954954242523    0.81891769808815
H         0.34795554849549    7.54931443034648    0.76866694605220
H        -1.15470317496298    6.63224866653002    0.69578537173241
H         0.30962114842125    5.96700587965977   -0.01315972776104
C         1.21529057546076    6.51814667274200    5.29840776337479
H         1.04441566255520    7.52915243223675    4.94036043718673
H         1.45450258795184    6.57332587723171    6.36009831437547
H         0.28921468653131    5.95894126737623    5.19398466767865
C         2.56103472890370    8.66282763704528    2.80667880113098
H         1.48283219219366    8.79479030631394    2.75755061322108
H         3.02847455559802    9.55916660426967    2.40018659000177
H         2.85144876479254    8.57899740020891    3.84940903713898

