67
CSD_code = KIBMAL | q = -1 | S = 0 | Stoichiometry = C26H32CoN4O4(1-) | MND = 6
Co       -1.52150228397690    3.17097609309695    2.41780841261219
O        -1.93318635543125    2.07625932740150    0.99626846537670
O         0.48270552610078    5.28727315411517   -0.36271121778849
O         0.19452283484708    2.51390879570131    2.52254917423177
O        -2.10373982941823    1.16011138224604    5.81642365014704
N        -0.89879018157101    4.62430565407649    1.31871717370237
N        -1.01988920823591    4.38651085671463    3.99543717405033
H        -1.52550044143393    4.29580866695109    4.87575330818711
H        -0.05196826737012    4.11922403279289    4.17844615663088
N        -2.25147834240434    1.93284886379803    3.68476870813454
N        -3.46040778642460    3.86668220148050    2.27512331190215
H        -3.71066470212951    4.61497748335718    2.91921859070933
H        -3.64926646806974    4.19139571545142    1.32908139099653
C        -1.54859548157519    2.24984839377582   -0.23275825236673
C        -1.93902383580503    1.26089866890353   -1.16597748678106
H        -2.50672147846757    0.42187476821274   -0.78755512997309
C        -1.60822426538751    1.34208196832638   -2.49788068082650
H        -1.92627552877309    0.55998464732737   -3.17740811976354
C        -0.86539049958799    2.41567666517447   -2.96972424638927
H        -0.59910549915982    2.48358714568214   -4.01614314969271
C        -0.47180710318717    3.39153787848006   -2.07701704330279
H         0.11241274271894    4.23950602177650   -2.40770948391065
C        -0.80353254598030    3.34430499049042   -0.72742560729372
C        -0.33234173571301    4.47994665990560    0.11188195648819
C        -0.39064284439796    5.74519612324272    2.09736200835739
H         0.69954452014716    5.62845797802965    2.21329707984161
C        -0.64304030304125    7.12521728441449    1.46981798045809
H        -1.71978571501322    7.28806162533818    1.37078713921459
H        -0.19770066624743    7.13403403592343    0.47639570380451
C        -0.01528431021407    8.20906594456747    2.34207251792828
H        -0.20703014523494    9.19288053003653    1.90589467807127
H         1.06612567079584    8.05964883794418    2.36339418718025
C        -0.55413108155481    8.17256207454104    3.77142270581346
H        -0.04201771660344    8.91948162068913    4.38424394037337
H        -1.61875558275746    8.42330392955543    3.76330461683148
C        -0.37378639019948    6.78381058045594    4.38203338893670
H         0.69070658969122    6.55350772369871    4.46950472999334
H        -0.81080360671072    6.75459279458131    5.38591931711400
C        -1.04844860273300    5.74923026240424    3.47970281469636
H        -2.10072221164486    6.03761160530844    3.35881239935483
C         0.61472446954180    1.65953333660632    3.40829431949158
C         1.96242623478374    1.24444001383464    3.30188274243777
H         2.52243181771751    1.61268941610991    2.45423631924932
C         2.54670312523892    0.41913036729900    4.23312524438877
H         3.58386168241076    0.12914450813548    4.11459324358544
C         1.81587559021688   -0.03980783994745    5.32116078103387
H         2.27262285288053   -0.68658056051204    6.05829055246579
C         0.49318599332863    0.33548929052305    5.43604365764272
H        -0.11086076125159   -0.01154756552841    6.26357903713213
C        -0.12736387113002    1.16469555602720    4.50811977631738
C        -1.57633585071775    1.43349551563889    4.72158869178424
C        -3.68705680798790    2.05618684354444    3.85607023092086
H        -3.90429245408004    2.71056618876483    4.72290883399826
C        -4.39675618061226    0.71731644522971    4.09417616638109
H        -3.99530443585989    0.27268571038079    5.00386838373016
H        -4.17524634967192    0.05376590189000    3.25682468855429
C        -5.90104364276022    0.93692740751875    4.22582720572010
H        -6.40286796359518   -0.02239940020945    4.37415243467786
H        -6.09731808351047    1.55354675746657    5.10708509720626
C        -6.47485750076610    1.62773730734638    2.99032783774556
H        -7.54621494217252    1.80543147572048    3.12267423566770
H        -6.34652185673969    0.97777801820143    2.12216963449730
C        -5.75340966717007    2.94820177318778    2.72875266039504
H        -6.14493602897439    3.41649237882858    1.82008528421564
H        -5.92766205638208    3.63269852681915    3.56576051948353
C        -4.25759839833619    2.67787825194609    2.58335261792855
H        -4.08404178224497    1.96781138923178    1.77071754029947

