52
CSD_code = KIBNAK | q = 1 | S = 0 | Stoichiometry = C24H22CrN2O2P(1+) | MND = 8
Cr        1.54560056304456    8.62634986130294   13.54835192212151
N         0.59848769418433    9.70704097121172   12.72820964136390
O        -0.14052368073900   10.46009935935318   12.24685441025393
N         1.43781567929367    9.61291672056112   14.86880202565045
O         1.24936410501742   10.32459502121500   15.76992930952853
C         3.40218963542329    9.43872039396165   12.79387852320354
P         3.84404152385001   11.06953930651749   13.37389153474639
C         2.46789985021965   12.19438651146824   13.05945635043497
C         1.75244878939632   12.80922271673958   14.08126838137158
C         0.67975042574070   13.62517077667860   13.76387217579950
C         0.32603093086967   13.83105779127751   12.44040629914173
C         1.04665227785385   13.22634910826333   11.42100845492730
C         2.11701045132475   12.40799500687293   11.72608225551388
C         5.30095743276316   11.72528772120104   12.51498820516962
C         5.34530804908107   13.03772897879824   12.05602077539322
C         6.49332030982199   13.50883438625827   11.44348421217160
C         7.59365460432314   12.68015407181724   11.29316467009504
C         7.55369653824327   11.37546234228999   11.76113769847746
C         6.41164855224666   10.89675022925774   12.37514929763129
C         4.28967361915813   11.06654388842210   15.12225264736963
C         4.31380508892131    9.90333093591074   15.88254894691248
C         4.70176896559943    9.96440767230740   17.20949955883157
C         5.06853534795676   11.17576161829757   17.77401856145600
C         5.05767529168879   12.33406922566187   17.01163983908343
C         4.67498358522522   12.28234866447263   15.68469574660097
C         2.20961306703550    6.71050831006865   12.56084286715084
C         0.81340950305001    6.78445062728144   12.44250679329106
C         0.26242710694852    6.78554065368399   13.74606049731978
C         1.32667153064564    6.66271786960167   14.66877889124530
C         2.53123464214554    6.64623879077297   13.94370075872071
H         3.34800877184166    9.52352957636247   11.70192134997698
H         4.25242460337202    8.78988568294364   13.02693905168492
H         2.02899654855867   12.65061045247515   15.11368751596122
H         0.11989690369560   14.10002149146943   14.55432289932712
H        -0.51212210376615   14.46617688328475   12.20050064156456
H         0.77134910261734   13.39144003702229   10.39113827735842
H         2.68884613247072   11.93494793172672   10.93826266364478
H         4.48622058041864   13.68291455792694   12.17368170509607
H         6.52847884811112   14.52585522605724   11.08429564100152
H         8.48566500378140   13.05194444989626   10.81368567316820
H         8.41358382768538   10.73323055811345   11.64859805704039
H         6.37986326664141    9.88321680976276   12.75086901150799
H         4.02132765862443    8.95876580620743   15.44255238210884
H         4.71844975128967    9.06505625532539   17.80559946372618
H         5.36702556713352   11.21692374071317   18.80985044239377
H         5.34954095871040   13.27487392592245   17.45161204568435
H         4.67142915022560   13.17713839910264   15.07634038190252
H         2.90315277172633    6.54661589442393   11.74788701111627
H         0.24944199502569    6.72900298588911   11.52290519626238
H        -0.78836321114795    6.71251905021707   13.98441099476170
H         1.22120909253291    6.50477945267350   15.73270626245977
H         3.50342330017161    6.39787130107566   14.34673208129287

