48
CSD_code = KIBPAN | q = 0 | S = 0 | Stoichiometry = C20H25INRh | MND = 6
I         3.37760892210264    8.65196910263189    3.78997314850653
Rh        1.42239722101466    6.89696057882705    3.55116535405339
N         3.33256487761000    4.98361572732034    4.68166922227247
C         2.85363976538195    5.55298420422749    3.55893306951764
C         3.48322262605035    5.17002002670978    2.32443193139249
C         3.12708410687837    5.80955767148065    1.12236753776876
H         2.39289465397941    6.61194209887397    1.15663045091680
C         3.71760612942251    5.45515486382064   -0.06334445372422
H         3.44403088887085    5.95912797102239   -0.97826769877528
C         4.68407151210388    4.44555822808102   -0.09493731004273
H         5.13879621398371    4.17162734802421   -1.03552850914414
C         5.06645913546522    3.81679927300828    1.06358570570101
H         5.82798289044343    3.05033384893549    1.05041784859373
C         4.48506942003506    4.17326790384306    2.28853232467298
C         4.87428313240543    3.59209965165678    3.52571704273318
H         5.63340506903157    2.82673232526169    3.54691912531632
C         4.30918026028166    4.03275781107432    4.67096069583195
H         4.60710264496990    3.64011924067420    5.62977891240599
C         2.83305240299265    5.43090598111534    5.98797540856215
H         2.04551415519667    6.17773927705776    5.76687878060614
C         3.94348875588690    6.12121284554682    6.77433694095933
H         4.74168271446489    5.42933232407235    7.03341191349716
H         3.53484143416147    6.53275784359381    7.69314531016974
H         4.36478031239706    6.93719564626142    6.19226319332230
C         2.21295714548444    4.27787085557636    6.77291777156987
H         1.50483232225535    3.72708961541796    6.15712731475242
H         1.68266671867131    4.67379397323801    7.63485216685751
H         2.96865505997898    3.58353253421834    7.13356171469075
C         0.07487220916054    5.58354611699285    2.55174896800146
H         0.61380706886805    4.75545590243187    2.08763521883152
C        -0.16060139490475    5.50032650630713    3.92576468812112
H         0.22642785726714    4.61521090825574    4.43104670122867
C        -1.36917073245026    6.11615468919658    4.60102318336061
H        -1.65478066922532    5.49528186252348    5.45355727411300
H        -2.20828158732666    6.10458480615430    3.90283277116043
C        -1.10620876083201    7.54969339915314    5.10110204086666
H        -2.04244843677563    8.11896722114504    5.11585600206467
H        -0.74344975505687    7.50564163856459    6.13219844345195
C        -0.08567415887874    8.29899664266140    4.27552703823883
H         0.44104151344668    9.07253818040393    4.83533143664227
C        -0.08535606108820    8.37605336758997    2.90215752795910
H         0.47576828379618    9.18524634660819    2.43439380711404
C        -1.15680794354579    7.76041965395585    2.03167177246403
H        -1.30165703158611    8.38837953893792    1.14977163944129
H        -2.10072596678476    7.75446858182885    2.57990720613598
C        -0.79439807987118    6.33580191522033    1.57117950731935
H        -1.70793082874912    5.75768472530396    1.38764557531682
H        -0.25869601698122    6.39298922519726    0.61927428518026

