55
CSD_code = KIBPIV | q = 0 | S = 0 | Stoichiometry = C25H27ClNRh | MND = 6
Rh        7.98685143401904    8.71410176431963   29.44940379255824
Cl        7.90528408808620    8.34293341326089   27.18574020558200
N         7.20564173147550    5.89478718889208   29.43615414244841
C         6.77375492106671    7.16532606980388   29.49764510093526
C         5.35166508463648    7.35803184031031   29.42158361290980
C         4.82061836424400    8.66036462758195   29.37732471831693
H         5.51394325856144    9.49874339812038   29.38585968262337
C         3.46710440038689    8.86353885737669   29.28924848817031
H         3.06891673414311    9.86637334499163   29.24490578720592
C         2.59192781450421    7.77361504565613   29.25176134022653
H         1.52748426665376    7.94613638036920   29.18778961895761
C         3.08037490122756    6.49136882714249   29.28341191317795
H         2.41045975576588    5.64462334525444   29.23834089241377
C         4.46155916683565    6.26041773341819   29.35819203778053
C         5.02642414396263    4.95582206498954   29.35498485743724
H         4.38514891416714    4.08976901981298   29.31717326318318
C         6.37057895342936    4.81927945525339   29.37241437082262
H         6.84638898060929    3.85048603385162   29.35668691243540
C         8.64260689577047    5.61692441697503   29.37774819811316
H         9.13865041551039    6.60576717046493   29.47972783244197
C         9.07556707845098    4.73169819200647   30.52409341440722
C        10.21967153747442    3.94704439513620   30.43424051201112
H        10.80120286099154    3.93862072774962   29.52635200008537
C        10.63174383524026    3.17074970972175   31.50306157292155
H        11.52239991688544    2.56682057531226   31.41096296089233
C         9.91020067353437    3.16568791988581   32.68362472389988
H        10.23144624482663    2.55854717486956   33.51651439622508
C         8.77427775995375    3.94917766610184   32.78815902860032
H         8.20427740654134    3.95903410140189   33.70554444102870
C         8.36292067341054    4.72585197035612   31.72033463174959
H         7.47319783928137    5.33095352237564   31.82530988507995
C         8.98716787181381    5.08641732709384   27.98536420060877
H         8.60550944582279    4.07990485005783   27.82912441650397
H        10.06197637528427    5.08446054629980   27.83435356810915
H         8.55212152299344    5.75767825174762   27.24685246266274
C         9.76856998482609    9.98514725695420   29.30134554262231
H        10.29070952340354    9.64037173131235   28.40911485637058
C         8.64549954600547   10.75988979929438   29.12845343197117
H         8.35103784015866   11.01337023180033   28.10973836350497
C         8.03244274272414   11.64882196991184   30.18603176108621
H         8.64908248318233   12.54720258039466   30.30255433020405
H         7.05323328517080   11.97717731449450   29.82765086355013
C         7.85800636433809   10.95019110895699   31.54912006431037
H         7.00333000270625   11.39571683747669   32.06302974966472
H         8.73346226058583   11.12079937873271   32.17790096526635
C         7.63093905653500    9.45784919992037   31.41813955980291
H         6.65525618714280    9.12160801424526   31.76788566102671
C         8.66630077329899    8.52155960507091   31.44700227720708
H         8.43793829491597    7.53818499553250   31.85852754868569
C        10.13606792542639    8.86380663246062   31.55017141746477
H        10.70774836607957    7.95370661801903   31.34632520646371
H        10.36512821292546    9.15921215307172   32.58060150245755
C        10.58457883925632    9.96927452042852   30.57469599070848
H        10.51449076174522   10.94772584800419   31.05255877774801
H        11.63501228202400    9.80912727596225   30.32246314735453

