73
CSD_code = KIBTOF | q = 0 | S = 0 | Stoichiometry = C36H30Br2N2O2Zn | MND = 4
Zn        0.00002551886055    7.96997575849348   10.79313789037441
Br       -1.84643785258918    9.24255535379963   11.53008971086314
N         0.96044929420161    9.34564501240550    9.42296258162415
O         3.56654175755062   13.22032538657179    7.92756101437822
C         3.37362605164200   12.06219551781768    7.12654682671204
C         2.55561550357487   11.08420893065167    7.94552887450719
C         2.64540590644201    9.70593690399405    7.77684809044250
H         3.34780902812341    9.27022632774193    7.08429745262233
C         1.84126520488263    8.88352795087966    8.53993524382673
H         1.91190685004908    7.80800547752080    8.45251929471384
C         0.85385946218733   10.66372157860652    9.57039235084187
H         0.11919093538934   11.01065437515125   10.28431790269880
C         1.62639570898950   11.56215501090779    8.86205591792340
H         1.52574070244987   12.62150265223424    9.02712341868475
C         2.49281716975697   12.36021004131699    5.91245902276123
C         2.28524413325491   11.38939160530994    4.93922292329193
H         2.77302041921082   10.42947605991078    5.02293179675257
C         1.46660293709319   11.65270702297622    3.85677905082443
H         1.31683329381993   10.89396448747219    3.10299552956046
C         0.84021256586721   12.88277165968599    3.73816967657046
H         0.20183053352111   13.08631408187967    2.89158872063458
C         1.03291574931660   13.84637319676173    4.71158004607780
H         0.54393479726516   14.80570369724529    4.63093212575020
C         1.85191017693015   13.58491912937094    5.79643996541159
H         1.99123143145621   14.33418332640623    6.56144491177621
C         4.74118273116525   11.51549229863252    6.74376077472522
C         5.49063099666382   10.82931877175213    7.69357295019842
H         5.07265848161614   10.64433358305527    8.67210019717375
C         6.76689479218988   10.38903078254696    7.39393281516401
H         7.33354729504763    9.84893653295519    8.13723041264394
C         7.31537268241196   10.64264759589304    6.14793475809502
H         8.31013867189835   10.29557026967229    5.91227019102601
C         6.58735725508356   11.35355113286302    5.21001412367545
H         7.01420868128924   11.57063634207715    4.24209364442030
C         5.30944101096614   11.79531123396890    5.50741378195217
H         4.75316923413631   12.35684206536415    4.77050275611740
H         4.19826874321749   13.79526536592168    7.48178665913624
Br        1.84674515849068    6.69753513628401   11.52965588959764
N        -0.96078284937696    6.59423143978413    9.42336266007562
O        -3.56645145172403    2.71934359727594    7.92748135301680
C        -3.37369110127400    3.87766242641749    7.12670855392002
C        -2.55588026448209    4.85564637397859    7.94588497768047
C        -2.64581245299784    6.23392495984358    7.77733008000887
H        -3.34816598651937    6.66961867371217    7.08471872513984
C        -1.84174714298454    7.05634477088180    8.54047946109465
H        -1.91229286109529    8.13186377971566    8.45296281894508
C        -0.85406114595115    5.27615398324707    9.57068093440451
H        -0.11954328476351    4.92924007467847   10.28476815713103
C        -1.62661394644668    4.37770963504278    8.86237209617093
H        -1.52599772496232    3.31836861263030    9.02749329582847
C        -2.49269321632071    3.58005510537829    5.91265432156711
C        -2.28536051985906    4.55102936189721    4.93952326682402
H        -2.77352830714125    5.51074514313526    5.02323225264535
C        -1.46645750026466    4.28811703198094    3.85717947666050
H        -1.31689105903432    5.04696895855535    3.10346692826415
C        -0.83957457010435    3.05830367176999    3.73856367826758
H        -0.20098490693023    2.85507827459810    2.89206461307917
C        -1.03206070528693    2.09454261391154    4.71186085795616
H        -0.54268000413026    1.13541680122742    4.63121734869482
C        -1.85130850641711    2.35559652864737    5.79662509494527
H        -1.99043698886036    1.60622942373429    6.56156396715514
C        -4.74130732874548    4.42418625110924    6.74389729487400
C        -5.49090137438999    5.11025225971208    7.69366997727821
H        -5.07301124679702    5.29529008229732    8.67222272370890
C        -6.76721577054666    5.55035069483390    7.39396301880405
H        -7.33398857504949    6.09036019032763    8.13723148742535
C        -7.31559509321475    5.29665102680033    6.14793937127188
H        -8.31039534667010    5.64359319978363    5.91221936632039
C        -6.58742927722732    4.58585304470239    5.21005499287870
H        -7.01419844295792    4.36870895148295    4.24211163464263
C        -5.30946543124434    4.14428043172134    5.50752278842420
H        -4.75307105144456    3.58282899744395    4.77064283132718
H        -4.19796757790957    2.14433197192846    7.48150029996983

