54
CSD_code = KIBTOG | q = 1 | S = 0 | Stoichiometry = C18H23N6O3RuS3(1+) | MND = 6
Ru        0.68243108055375    6.48441434833006    5.50325380655487
S        -0.21862845553004    8.49356248822779    4.76883319142686
S         0.73918141478368    7.37281947340604    7.69295491437334
S         2.83340327633847    7.34787961543681    5.17306882402356
O        -0.34247595151034    4.81608913730614    8.43259789665482
N        -0.06032356004301    2.55943359005252    8.55339748060322
H        -0.63999379569844    2.57270749072864    9.38466325475934
N         0.12191319670918    0.25611669184567    8.78981487926126
H         0.49630003337749   -0.61916641091304    8.46894241259627
H        -0.42432658687098    0.28263536572696    9.63116178994220
C         0.43517728862216    1.36302732703116    8.10180547862335
N         1.18687978308966    1.25307028691559    7.03784556956731
C         1.44284311489066    2.41638442250650    6.41495962854129
C         0.98785310191213    3.67683558905358    6.80632910383538
C         0.15602655645265    3.81328912330515    7.96185948287896
N         1.46788952053431    4.60926837964317    5.92385431315002
C         2.17785811561649    3.93695013453625    5.04490769845420
H         2.68663856810500    4.37734964094481    4.20608256257994
N         2.19195751335755    2.60752641717254    5.29904510742980
C         2.79891713784595    1.58286202222669    4.49386107359747
H         3.87186665418544    1.75359639692067    4.40539170526873
H         2.35221874533765    1.58367704030940    3.49863713204934
H         2.61620812103672    0.62607238606267    4.97791674246218
N        -1.12472641997577    5.58190262659477    5.52994689516800
O         0.65558987984208    5.75550934660077    3.55142831596758
O        -0.06456339361729    3.87027988483231    2.62346531077096
C        -0.12889072430355    4.75687155501864    3.45329598265888
C        -1.25215842950772    4.73773415548278    4.49723987035894
C        -2.36383677721212    3.92556186324618    4.33339273576762
H        -2.38981561443799    3.26431602825208    3.48123152782362
C        -3.38928685206265    3.99631725405822    5.26087438012105
H        -4.26848510420002    3.37875588333013    5.16258132236979
C        -3.25961428880796    4.88694710293790    6.31662929158512
H        -4.03323679128349    4.98625955521528    7.06091430433187
C        -2.11248743409778    5.65576894442274    6.41543994205773
H        -1.96797887298945    6.32681350312136    7.25071847749216
C        -0.23294173494762    9.61279446185589    6.24460978719446
H         0.66958964540326   10.21957874276646    6.21347350012944
H        -1.09581538457180   10.26667200887784    6.11642777705408
C        -0.36232760560483    8.84066090200248    7.54020961477727
H        -1.36622521249930    8.42965060722618    7.64028605203182
H        -0.15797530042784    9.47748266352202    8.40113788312764
C         2.36677809135720    8.25878821578845    7.80452452875600
H         2.18846392399830    9.31149895183567    7.59678543839067
H         2.68799063331606    8.15688054420868    8.84119486508390
C         3.41364239670285    7.67167010622592    6.88448130034080
H         3.71916193969952    6.68348104219768    7.23246288914739
H         4.29129115469356    8.31546137421902    6.81981000509212
C         2.53738911110743    9.05388289698243    4.53838207086172
H         2.61280107552589    9.74601872610735    5.37564329443475
H         3.34462945382089    9.26284510317236    3.83572487319292
C         1.20711015962162    9.14429071346961    3.82401042991708
H         1.21037268294912    8.51175231215054    2.93351105623469
H         0.97654091946925   10.17195196749299    3.54118222905743

