39
CSD_code = KIBTAR | q = 0 | S = 0 | Stoichiometry = C14H12CdN10Se2 | MND = 6
Cd        0.79621994546301    0.45945819602111   28.59198465253459
Se        2.98030845238808    0.06933320909573   27.09777533128347
N        -0.43189310432569   -0.90603050246561   27.05570013200987
N        -0.24375565696945    1.92070396519795   27.04698768538481
C        -0.53101413756521   -2.20776753251891   26.69361180052243
H        -0.43320146664019   -2.99142288336048   27.41818023033397
C        -0.75321723710580   -2.29439824070910   25.34856934526888
H        -0.87748410551523   -3.13738095476217   24.70125535024856
C        -0.30409364209779    3.32490604207358   25.32554490452016
H        -0.28057131443425    4.17140322123905   24.67145932816496
C        -0.13219418411704    3.22010133142306   26.67669385263257
H         0.06539287603770    3.98778734265039   27.40005818724685
C         2.28181959161021    0.22927023479405   25.47600103388810
N        -0.80288674516573   -1.01197692122622   24.88846535207876
H        -0.82967001136680   -0.73958267770170   23.91994623548688
N        -0.53894705736454    2.06094780307558   24.87134610172515
H        -0.57243794247332    1.78576760875241   23.90365341453111
N         1.79426883647516    0.32757390224902   24.43079739185479
C        -0.58876967433639   -0.19770135174976   25.95103017109421
C        -0.47945057784334    1.23292644902760   25.94268624606369
Se        1.55068111746745    2.54605401671135   30.08596531791401
N        -1.00042249573456    0.07878722579749   30.12811373958253
N         1.54167591403096   -1.17158894717028   30.13726580711078
C        -2.17739467591599    0.64380797217689   30.48996823771202
H        -2.80706011110833    1.12025505088734   29.76526524071984
C        -2.36370366889630    0.49481802877653   31.83500408576436
H        -3.15599161693392    0.80871765330966   32.48217239031518
C         2.72747618089671   -1.92555879605130   31.85895233631376
H         3.47230155558241   -2.32825844961111   32.51318096489779
C         2.72277281949491   -1.72451738388331   30.50776381318818
H         3.48648989564035   -1.93731151670978   29.78451348804917
C         1.33943059636017    1.86154954450302   31.70783320453853
N        -1.27796866690737   -0.18931678543395   32.29533146305696
H        -1.05558107285730   -0.34858172834480   33.26390006856483
N         1.51535780456298   -1.49697682101393   32.31296293992825
H         1.26020216500489   -1.38823712809623   33.28061544676103
N         1.18049530043757    1.39041525626305   32.75306572056820
C        -0.46556575645993   -0.41109811965033   31.23290326220915
C         0.82808187068820   -1.03167731355463   31.24147572592578

