73
CSD_code = KIBTIZ | q = 0 | S = 0 | Stoichiometry = C36H30Cl2N2O2Zn | MND = 4
Zn        0.00004623568423    7.87392599949632    2.27246665967769
Cl        1.24168787405741    6.26180412922311    1.41629282238249
N        -1.37692725822303    6.83509268944629    3.52985022543610
O        -5.43429815823527    4.33899721136309    4.70469130646015
C        -4.26569401186653    4.34896745789076    5.51353883029318
C        -3.22923677928093    5.18925069705763    4.79321831865592
C        -3.63631738366558    6.26180072126582    4.00805632483349
H        -4.68601245045500    6.45721487171239    3.86611322629177
C        -2.68209107536012    7.05444765918574    3.40006182285795
H        -2.95829157124026    7.89849215854368    2.78321831456741
C        -0.97941944762226    5.81316096531551    4.28086179739425
H         0.08818488903768    5.65841277717659    4.34343217249646
C        -1.86155360276921    4.97504837259952    4.93486362850941
H        -1.48283933645842    4.15464156259510    5.52390916071660
C        -3.81994339315328    2.90865032876818    5.72110242893293
C        -3.20520168541044    2.23035026227155    4.67388721251116
H        -3.00332181951849    2.74878375047296    3.74830920047932
C        -2.85774509724825    0.89879195914847    4.81065556917805
H        -2.37368135811852    0.38609757802437    3.99320514752666
C        -3.13279861728464    0.22520746793071    5.98900193407690
H        -2.85714385079911   -0.81294942182420    6.09769680012719
C        -3.77366375005898    0.88569665340327    7.02241715593830
H        -4.00736986946149    0.36366287401116    7.93838107340151
C        -4.12365374915726    2.21839686564079    6.88764839155199
H        -4.63151279534881    2.72148322421463    7.69794559312673
C        -4.50180079118130    5.08939112942881    6.83056659616643
C        -3.51230783551819    5.12000486714226    7.80661316384676
H        -2.58135701825695    4.59671119496667    7.64698451043726
C        -3.71937116546569    5.80924869057182    8.98691738184717
H        -2.94615437555051    5.82263723431744    9.74067426059858
C        -4.91094428103707    6.48231306590230    9.20275827139258
H        -5.07114535749882    7.01833282866889   10.12615919234933
C        -5.89195951368429    6.46716380009884    8.22794180268768
H        -6.82251507692417    6.99195246903618    8.38512039678393
C        -5.68697463882275    5.77722227293405    7.04556024553449
H        -6.45007286198784    5.77699540730254    6.28161363052414
H        -6.05539456255076    3.70392339667494    5.07789449568286
Cl       -1.24172467750536    9.48612497470184    1.41654804297043
N         1.37686099382836    8.91288337182327    3.52998825700166
O         5.43429192689517   11.40909971894447    4.70467070357997
C         4.26568012033701   11.39908469522118    5.51356943055271
C         3.22921776537619   10.55871520809032    4.79336337201885
C         3.63626745951231    9.48594259273203    4.00848440813279
H         4.68596375599283    9.29092617609168    3.86597748152347
C         2.68200589592090    8.69294123343252    3.40096531858592
H         2.95824406605899    7.84977051931641    2.78292727373784
C         0.97939820688505    9.93542644727250    4.28019226620327
H        -0.08828712918942   10.08906806222015    4.34422691632207
C         1.86153357146147   10.77313370837236    4.93473273148797
H         1.48280819577640   11.59313036688399    5.52434939800809
C         3.81937458127865   12.83923627792148    5.72123022160324
C         3.20532936214054   13.51771143988661    4.67371971564286
H         3.00308863453045   12.99908613565740    3.74829558400519
C         2.85841503496763   14.84945802652321    4.81022406306178
H         2.37310289516694   15.36173903938689    3.99325053383652
C         3.13308109275197   15.52297153829879    5.98869327277980
H         2.85647723340397   16.56080421455750    6.09771829282680
C         3.77313823198512   14.86226249769325    7.02246001454433
H         4.00709508322731   15.38442175117014    7.93830993752165
C         4.12271675826979   13.52941963878434    6.88789858895463
H         4.63161677567616   13.02670115833647    7.69775932787309
C         4.50174893166769   10.65833930571904    6.83043111512638
C         3.51197869788654   10.62686428667374    7.80619870155016
H         2.58159033241937   11.15135610764457    7.64733308312757
C         3.71923429575853    9.93761299725850    8.98646403086981
H         2.94668500036421    9.92535111873032    9.74087823621935
C         4.91164750458909    9.26618767488953    9.20297614683945
H         5.07150503445246    8.72939863003427   10.12597917724224
C         5.89311161652439    9.28255846559662    8.22862533707950
H         6.82272107620286    8.75583566670552    8.38462588801660
C         5.68748818709266    9.97160947140240    7.04581300507114
H         6.45012173827137    9.97108333802379    6.28143531358839
H         6.05526729081428   12.04441897194046    5.07765574717764

