71
CSD_code = KIBWAU | q = 0 | S = 0 | Stoichiometry = C24H36Cl2N8Pt | MND = 4
Pt       -4.61039481414186    0.00043154919136   11.37046666033792
Cl       -6.12137571256929    1.72757549895090   11.75946219777735
N        -3.21173641567146    1.21417713798889   12.14465514339333
H        -3.50044631072045    1.62319812758050   13.03206511466099
N        -1.45242242276147    1.26811455857548   10.61762587641504
N        -1.28196196988409   -0.10615686456555    8.82055754864643
N        -3.02253103944152    1.43878838685813    8.86577003443818
C        -2.05630198186401    1.65733321603352   11.73103142799729
C        -1.25728045833034    2.58498799695356   12.56896481053075
C        -1.39834842578899    2.63971330548510   13.95285873609480
H        -2.07855986500329    1.97038017798574   14.46113228787608
C        -0.64552095066458    3.52822236517939   14.69872672435808
H        -0.76047855462371    3.55752581796172   15.77256756905366
C         0.25468030588908    4.37553262672248   14.07530056967562
H         0.83731991194675    5.07153123873226   14.66056162102453
C         0.41070319951656    4.31996568869219   12.69987959707512
H         1.11754321752792    4.97335380059430   12.20956010691122
C        -0.33542603491746    3.42853831595406   11.95357046424174
H        -0.21221561855868    3.37077725589388   10.88265019343683
C        -1.97168793224777    0.83018900167988    9.49911588679561
C        -0.27922372273172   -0.88930180314947    9.49953514137688
H         0.72312426586889   -0.49489904633651    9.30776435553744
H        -0.33721364769191   -1.92107688084716    9.15216620961539
H        -0.47457583319266   -0.86714326287566   10.56730255949562
C        -1.29536884260093   -0.24224023981496    7.38649725393017
H        -1.80214092794687    0.60310909498548    6.92871777688391
H        -1.78130460639179   -1.17163288726545    7.07560047026819
H        -0.26282299401475   -0.26380910361679    7.02718119724066
C        -4.04613425161987    0.65475743395495    8.20558505626357
H        -3.75435191976406   -0.39089356606703    8.16681875037823
H        -4.22676599427271    1.02751903003729    7.19270080962812
H        -4.98166457792809    0.73577489671288    8.77613073332231
C        -3.49213311857162    2.72977473921603    9.32082584750449
H        -4.26797950427006    2.64680135462482   10.09021456018291
H        -3.91059783253420    3.25686314814652    8.46148475548167
H        -2.65941859024372    3.30649361108683    9.71791173321995
Cl       -3.09920545353011   -1.72703557728715   10.98083098052482
N        -6.00886314541437   -1.21340754730893   10.59606213610014
H        -5.72003638885883   -1.62236336078807    9.70865677868258
N        -7.76814415047723   -1.26781728197724   12.12305995586595
N        -7.93863494504573    0.10631278908058   13.92025389531893
N        -6.19801769760059   -1.43858103697483   13.87486464110889
C        -7.16416444881645   -1.65692714617430   11.00967258093882
C        -7.96277064626581   -2.58499644815652   10.17180761423153
C        -7.82178220366671   -2.63962898251245    8.78789852076823
H        -7.14208637265989   -1.96980540452653    8.27957510073301
C        -8.57405588119062   -3.52865628510906    8.04209203388194
H        -8.45915490707841   -3.55790300859091    6.96824395722692
C        -9.47361364436460   -4.37658879482475    8.66559747837316
H       -10.05578059620515   -5.07302878326295    8.08039087180063
C        -9.62958754914486   -4.32110128312464   10.04102821384226
H       -10.33594145856851   -4.97496758660595   10.53140241649922
C        -8.88401736918082   -3.42915427343989   10.78727691493377
H        -9.00721608080369   -3.37143454174799   11.85819501054622
C        -7.24891383758856   -0.82996199801334   13.24160551814670
C        -8.94141647972902    0.88949079919607   13.24138090216042
H        -9.94377741658417    0.49522551000805   13.43342513555234
H        -8.88322595567546    1.92131730786947   13.58859579000212
H        -8.74628197059727    0.86714885253897   12.17357363690121
C        -7.92513231105121    0.24230806865876   15.35432212833087
H        -7.41833131333371   -0.60307240057086   15.81201473250827
H        -7.43917242382037    1.17168068310413   15.66524357346872
H        -8.95765511437421    0.26386041959091   15.71370478148756
C        -5.17435006661875   -0.65453476094168   14.53494023963550
H        -5.46619628371109    0.39109384416531   14.57383629395624
H        -4.99352636645464   -1.02736856052468   15.54776407230054
H        -4.23890152052350   -0.73543198819054   13.96423717320511
C        -5.72841302872965   -2.72953076987527   13.41970338398943
H        -4.95260986039602   -2.64649774177866   12.65028213278456
H        -5.30988259016505   -3.25666822646303   14.27898390890576
H        -6.56112655149855   -3.30625020661739   13.02261771423874

