43
CSD_code = KIBXIE | q = 0 | S = 0 | Stoichiometry = C24H15ClN2Pd | MND = 4
Pd        5.00247940098161    1.37480581489513    3.94298695168803
Cl        5.33094625754034    3.53136296185323    4.28249040345668
N         6.80893157646573    0.33236759417168    4.95779815983840
N         4.88824439489917   -0.44527329543054    3.28293089213297
C         6.63184633780933    4.16721101228664    8.10011078650985
C         7.96353959233681    3.93839951548360    7.79363300949193
C         5.65880351910110    3.27873682849969    7.67372819207606
C         8.32741528259515    2.82033257755549    7.06808019887192
C         6.01228303431702    2.16553585779573    6.93488322516567
C         7.35553522070208    1.92410326177426    6.62972122966528
C         7.69618034707174    0.72375296707775    5.86037672134822
C         8.86193894903187   -0.03095460832188    6.10777307634920
C         9.06527565250041   -1.21438123290184    5.44477603347327
C         6.97183055563898   -0.84928403293474    4.33239584821793
C         8.09240480888266   -1.68079595545386    4.54175439000404
C         8.16367731240544   -2.92173815972438    3.85078839085253
C         7.17202221821417   -3.32187527995453    3.01211958177931
C         6.02372983239494   -2.51443555476659    2.78493222187423
C         5.93193036343288   -1.27305633665737    3.44662836242966
C         4.95797581345075   -2.85938405103224    1.93147155776350
C         3.91462434051807   -1.98244383714433    1.75260379096687
C         3.89818949116172   -0.75176850203555    2.43061899773222
C         2.92218107384961    0.31934363403651    2.30092542259414
C         3.26941572255116    1.52845039743103    2.95919833166627
C         1.72680750242556    0.22362944462733    1.58779614359402
C         2.39533323540967    2.60393125173655    2.87471627080742
C         0.87548998540492    1.30833869326639    1.52243898943373
C         1.20830835528936    2.49260536125031    2.16370571768973
H         6.35203934000939    5.04311924510044    8.66594537604853
H         8.72046153476674    4.63870375643610    8.11487438773217
H         4.62022612912029    3.46062882567267    7.90363882033284
H         9.36385757128638    2.66089234477904    6.80788823165303
H         5.24128648484000    1.45904474852609    6.61048267717401
H         9.57291546258414    0.32016403648454    6.83901864862200
H         9.95118902022235   -1.80643329586177    5.62553501502281
H         9.02976698350699   -3.54627590315079    4.01479426744867
H         7.23810599003870   -4.26847794313498    2.49595133639884
H         4.97837585896753   -3.80633101922066    1.41253061221043
H         3.10773816972147   -2.22791150904117    1.08058333463483
H         1.46257891648894   -0.69904500509688    1.09104010718647
H         2.64348533406260    3.53914051677057    3.35982701068265
H        -0.05036032714043    1.23389239271807    0.97072314472506
H         0.53809335514019    3.33837248163190    2.10758413265324

