50
CSD_code = KIBYEB | q = 1 | S = 0 | Stoichiometry = C19H27ClIrN2(1+) | MND = 8
C        10.71443652357256    5.03355591992012    5.20236562379370
H        10.23198233067648    5.98329781240545    5.02557532531096
C        11.62947398516279    4.89072740173434    6.22940223451015
H        11.87360687035931    5.73637042014797    6.85117133926866
C        12.21730431144603    3.64929317058447    6.44692214645859
H        12.92895856941494    3.51019629043531    7.24499504230713
C        11.86130840628474    2.59625586515163    5.62730728687213
H        12.27559882617691    1.61087943456444    5.76788438674471
C        10.93392742725403    2.81389354110739    4.60822654278637
C        10.45261031594075    1.78877890363899    3.72062324621102
H        10.82251136475465    0.77651427666028    3.82131102858348
C         8.95310275052683    1.19063607821652    1.95563798295960
H         9.11497375629372    1.56290525418250    0.93854634754315
H         7.87522729561147    1.23554530556926    2.14822737385580
C         9.41294471721155   -0.26413336472899    2.03781579736006
H         9.21707016940786   -0.65677772925139    3.03692823696856
H        10.48416584066336   -0.32961614229426    1.83599728038654
C         8.65893652810265   -1.10626409643078    1.01460920367598
H         7.58835755647756   -1.06833395405830    1.19812165607573
H         8.97753488903450   -2.14247377001453    1.07769174014342
H         8.85070703947915   -0.75344832180861    0.00418456642040
C         7.07834565639639    5.28200041244730    2.35919320125584
C         7.50597234921768    4.43615802381541    1.28617328209983
C         8.83719202289714    4.84345133449029    0.90789314972076
C         9.24681722346101    5.88862318149590    1.78958912251577
C         8.17353094424981    6.13236380263156    2.71874161900933
C         5.71419829879814    5.36267994537359    2.94303920531866
H         5.06787445121736    4.58372899813549    2.55139208728725
H         5.28091452083657    6.33438901531781    2.70363419287609
H         5.74643969038837    5.27146343511641    4.02723845998079
C         6.60767609471008    3.52978214832180    0.50808802758967
H         5.97241101938068    2.94528195901852    1.16964442449548
H         7.17140307055183    2.84934745139686   -0.12358069566878
H         5.96132120290536    4.12842786511426   -0.13482631171176
C         9.57806798946910    4.40596805754861   -0.30979166425638
H         9.38264760623438    5.11190883466275   -1.11823219858452
H         9.25854111038211    3.42255854538896   -0.64461177917337
H        10.65195286658188    4.38535432902011   -0.13860734421470
C        10.48744660163623    6.70319975684863    1.65003523982149
H        11.30152537606579    6.11876718255908    1.22875856070928
H        10.81077224842803    7.11154955389148    2.60434559693520
H        10.29138306365745    7.53902219942894    0.97681144425801
C         8.06313614100828    7.27499096679264    3.67516654986964
H         7.41968380645438    8.04364915590684    3.24521731871071
H         9.03073024693196    7.72639258627543    3.87811110035298
H         7.61297378761945    6.95544873449971    4.61310029627850
Cl        7.59076777392157    3.17963373664067    4.79425490566682
N        10.37530497185725    4.02950145483016    4.39895217288089
N         9.56402213197041    2.13331623614720    2.85618623898272
Ir        8.85510825891535    4.04213880115505    3.01383940875861

