79
CSD_code = KICDAC | q = 0 | S = 0 | Stoichiometry = C31H42IN2O2Rh | MND = 6
C         2.52701723618569    0.48228668349646    3.43905726434268
H         1.58068977022967    0.00259524252700    3.69383266665901
C         3.58202077450739    1.38372954268553    0.99577899874443
H         3.36459667960910    1.57112926993354   -0.05496184376317
C         4.12733002082777    2.43172421268449    1.73478991762998
H         4.26846268093145    3.37958338619743    1.21867760769891
C         3.54044768642474   -0.43351951649640    2.78861165184542
H         3.18236543540294   -1.46380754946720    2.85411166122459
H         4.47633316375332   -0.38394799339113    3.34850952080360
C         2.87073602389621    1.63383365877361    4.11989093753220
H         2.19933436419836    1.98699542737550    4.90446360671114
C         3.78059301521688   -0.08235012733813    1.30756553801506
H         3.08618248414603   -0.65717699635196    0.68756825335602
H         4.79342443846362   -0.38007581673096    1.01103350306139
C         5.04520173598429    2.22191430909131    2.92111698209683
H         5.61568152956613    1.30256136417184    2.77454880449471
H         5.76544699599680    3.04266143740506    2.96203725773409
C         4.27801355336283    2.17002798332894    4.25639074482110
H         4.82661149861368    1.55990065680465    4.98367360298787
H         4.21646151233932    3.18106431236334    4.67071395094663
C         5.25272778063522    6.42530155033685    0.16789192104403
H         5.91619100765871    5.74551786047369   -0.36297984457850
H         5.79519168539291    6.89193924865013    0.99970999982192
H         4.91461143276832    7.21533569805457   -0.51497416819589
I        -0.37019156967967    2.56158785519715    3.18370451476959
Rh        2.04906752552505    2.21530095312950    2.21715521087664
C         1.42847994935046    3.38658868750300    0.75016828627370
N         1.51968219413405    4.71608205228191    0.76078206082736
C         0.36677950458819    4.11625674043150   -1.19246178105424
H         0.88879537848896    4.02981817620510   -2.15464625481488
N         0.75263103432255    3.00638425258126   -0.33296867398292
C        -1.11736933430030    4.19798933466539   -1.44366572765155
C        -0.14151136256855    6.35793163334106   -0.06143435890156
C        -1.98355760924786    7.09405683364798    1.29503707617536
H        -2.62670941217982    6.94101199239708    2.14892053862830
C        -2.04047269871824    3.81954391993588   -0.47622156452381
H        -1.70940155247635    3.41276766594648    0.46641771013478
O         2.26498885609370    1.42502126375148   -2.10572699420288
C         0.92089930753497    5.34610773825647   -0.40660929126551
H         1.70502758063091    5.83715571379996   -0.99817063571641
C         0.38932369217568    1.64781580311784   -0.62896619881441
H        -0.70051692313554    1.52838145474128   -0.59967983929304
H         0.83728895061706    1.02164900005536    0.15550996505211
O         4.17536449470210    5.65663347661466    0.63079735561272
C        -0.33186223343854    7.46131960501310   -0.88020857873199
H         0.31151966557146    7.61037194972852   -1.73679596633219
C        -2.18538467829417    8.19522051209761    0.47091686051680
C        -3.86227881408119    4.50435675196062   -1.90116886935393
C        -0.97904475806148    6.18372574285898    1.03399944336243
H        -0.85554041909457    5.33341087653283    1.68633482833828
C        -3.39338831154967    3.96809972937008   -0.70763800811506
H        -4.09564836779220    3.67106738391775    0.05703380425314
C         3.21988316029082    6.40887262254698    1.34067966806267
H         2.80153775163133    7.19820671496137    0.69507693010691
H         3.68451424455281    6.89901922018227    2.21021475043683
C         2.10655702832807    5.48104734831741    1.82667633581159
H         2.51189750921814    4.75740127314732    2.55013278816869
H         1.34382500610755    6.09350316403464    2.32300269381682
C         0.87928833078702    1.19425888836265   -2.00441187333624
H         0.65743614641586    0.12324589330273   -2.12956305868555
H         0.34466135784862    1.74202615607238   -2.79747635020710
C        -2.93688878229081    4.87560598310164   -2.86606978524233
H        -3.27742784321531    5.29291358332048   -3.80319600629882
C        -1.58106809889494    4.72190545500945   -2.64157731904433
H        -0.87513667487637    5.02202440063486   -3.40409841557111
C        -1.34319284409868    8.36749411775737   -0.61819861171182
H        -1.47894486348259    9.21757353614094   -1.27181337278868
C        -5.33368881152827    4.67298961685785   -2.12620404333524
H        -5.53334720911444    5.11374323268845   -3.09966549120940
H        -5.76034321271752    5.31600257214067   -1.35767005868876
H        -5.83878601226981    3.70957521216450   -2.06918277338343
C         2.80992151254945    1.00047398384199   -3.32596776182138
H         3.87266591676539    1.23138805015984   -3.29021781239489
H         2.34882628025298    1.52511224863963   -4.17267464715388
H         2.67422519133483   -0.07891372261290   -3.46826042995754
C        -3.28927320837333    9.16471056956062    0.76350046394672
H        -3.32017988057828    9.95882554135473    0.02172977612608
H        -3.15044541154974    9.61150504108295    1.74723777945060
H        -4.24985917831262    8.65150835348216    0.76592317769786

