33
CSD_code = KICFEI | q = 0 | S = 0 | Stoichiometry = C8H16Cl2N4S2Zn | MND = 4
Zn        3.01371646615011    4.88220848505333    3.06355327986061
Cl        0.98099407961522    4.46074531486476    2.15706981364290
Cl        3.67850984037194    3.47545592251064    4.70978987779934
S         4.67152222446965    5.03303418959486    1.11927892621782
S         3.29720703633381    7.25245448543105    3.97389822857185
N         2.40895642403350    5.65312762961094   -0.20849758554530
N         4.24984018302632    5.77802588823165   -1.39753706683863
N         5.17571325496282    5.98462243910537    5.43360321550669
N         5.12024117818774    8.16534641825632    5.68011994604608
C         3.72793619295000    5.49921927539332   -0.19360796441266
C         1.92231596798797    5.98536699630823   -1.53159969753061
H         1.31316001223002    6.89147413708260   -1.49052460061283
H         1.30629859544034    5.17130056148308   -1.92537074004853
C         3.21941039926449    6.17851014716236   -2.33663238785062
H         3.25869966754914    5.55068087964688   -3.23200072929940
H         3.36989085482163    7.22141521148454   -2.63845841473333
C         5.63788168310061    5.82814942090851   -1.74293820133974
H         6.21781000062421    5.49918742701151   -0.88342524731281
H         5.93063207031764    6.84720896431778   -2.00976530040359
H         5.83860656137891    5.16846634927060   -2.58986977981754
C         4.57140723633320    7.10803700067371    5.06357288342486
C         6.17679874331355    6.22504937005565    6.45243989923122
H         7.13370578315035    5.79553547135642    6.14662876207567
H         5.87561578568331    5.76309860683872    7.39753404737049
C         6.21638720893958    7.76075743454171    6.53979178845202
H         6.05617902352758    8.13083036564842    7.55694979984460
H         7.16028445231817    8.17387178355055    6.16573404693988
C         4.81763400977053    9.54575052951784    5.45304653911734
H         3.97411652128464    9.60453902345582    4.76867882274192
H         5.67697452741146   10.06059453075210    5.01486946097289
H         4.55524500282184   10.03238649936106    6.39483370385657
H         1.78812128920328    5.30984484212539    0.54022258022917
H         4.79058772344389    5.04620439935802    5.24711209384557

