48
CSD_code = KICFOS | q = 0 | S = 0 | Stoichiometry = C19H24N4Ni | MND = 4
Ni        5.71061400348009    0.61516173118493    9.46436480296650
N         6.94717669084969    0.47732287109058   10.87100996605331
N         5.10520858950241    2.13945160900380   10.38026330944552
N         4.30516106289187    0.84170149099163    8.15164904614675
N         6.39884496799323   -1.02548640042106    8.69688330663477
C         7.17255136003394    1.73756490453516   11.42303372459059
C         8.31178695640680    2.15081773052678   12.10035852634919
C         8.42426568661399    3.46979979826033   12.51533920560214
C         7.41952620735192    4.37989428017997   12.24346357519629
C         6.28190269187092    3.98865761393975   11.55242568075931
C         6.14357223387789    2.66830499880740   11.14647547426032
C         3.83389841971759    2.48762259143155   10.52406915346940
C         3.36005447085940    3.31561444705968   11.69181790132986
C         2.86845676833116    2.08271104982491    9.61280028226875
C         3.13796528115364    1.39144491773347    8.42567643410133
C         2.01232319162508    1.33159736140042    7.42433304222293
C         4.51676896647660    0.40734202777691    6.78374599617100
C         5.97892882743080    0.06117590140636    6.53601709293559
C         6.36489382364319   -1.22165221352005    7.25988104461721
C         6.92759936741877   -1.99700055630191    9.41520397653480
C         7.24612476934130   -3.32784124972356    8.78242338441787
C         7.25830711257418   -1.86515459807590   10.76933107881967
C         7.31684116804196   -0.65703372436460   11.44977431541191
C         7.79512308759979   -0.70503057386200   12.87908026969453
H         9.13403058713407    1.47050175799846   12.25636628615818
H         9.31865202601860    3.78974738709828   13.02953926443156
H         7.52857164129555    5.41138026363053   12.54466100598508
H         5.54039489226131    4.72496741420716   11.28596289486435
H         4.05005558218869    3.24815508023543   12.52954250492897
H         3.25379870599781    4.36211775572721   11.40885795756172
H         2.38239985357893    2.95786727810549   12.00848838035189
H         1.85100971403970    2.38864538541286    9.79771791451102
H         1.08778669656220    1.68084912891325    7.87400455469932
H         2.23043885624126    1.96298150130065    6.56278200770897
H         1.86402625552145    0.31419550416279    7.06581478949720
H         4.22804882583419    1.20907256030938    6.08991148182082
H         3.90041964939917   -0.47539970597917    6.55696943830048
H         6.60750774278250    0.88213099281952    6.90296701770292
H         6.14782219323819   -0.06108978529371    5.46421773391108
H         7.35607231788688   -1.53586567649251    6.90396857743625
H         5.64392024242203   -2.00870258886385    6.99298583657773
H         8.07654947944967   -3.23106498587978    8.08279940611916
H         7.52657118852372   -4.05064064702650    9.54254231989426
H         6.38841408064341   -3.71306879680992    8.23320737274959
H         7.56286116373822   -2.75179061154372   11.30237426336303
H         7.45335909915125    0.16192153187228   13.43939148363154
H         8.88269497502006   -0.74533324365319   12.92421792570125
H         7.41089852598546   -1.60636350913495   13.35228899209455

