77
CSD_code = KICGEJ | q = 0 | S = 0 | Stoichiometry = C38H32N4P2Ru | MND = 8
Ru       31.21798570523302    2.60070709900677    4.55984586151579
N        28.51308748743237    3.64475103590906    4.84718678849770
N        29.27360205407321    2.74817345596329    4.33362995375661
N        28.63128285434341    1.79668451178132    3.69110053557151
N        25.14452512720826    4.51649202312061    5.25350861621212
P        30.95670440761348    1.28125760469859    2.76077221682700
P        30.71461677273526    0.71560945474235    5.69584382903251
C        33.30736330931583    3.15559529627353    5.12988051970532
H        34.21138840452643    2.58475508399386    5.29760381214025
C        32.97520359804801    3.82421332718728    3.92870275735736
H        33.52898303393386    3.74746915019943    2.99937955849954
C        31.85237729224371    4.66756040776061    4.14752487698060
H        31.48579204588816    5.41549735538526    3.45552637382622
C        31.56444945366764    4.64065097676163    5.55851299082425
C        32.46470285561821    3.69409422424565    6.16939601455283
C        32.44531310782796    3.51257351529742    7.56583121531135
H        33.13793077114711    2.82536187148205    8.03407974637447
C        31.55094587244695    4.23734110469408    8.31282379014043
H        31.52613485078068    4.11028766673575    9.38576157235821
C        30.66770260576775    5.15404643169999    7.71561435875676
H        29.98565117637259    5.70613398793425    8.34516029043052
C        30.66414994154345    5.36658681049636    6.36035341613032
H        29.99488166382595    6.08475538970174    5.90951613767066
C        27.24820544390626    3.28110756019721    4.52646024386708
C        27.33767488183553    2.10153509467600    3.78402551968251
H        26.56138333659526    1.50685704800386    3.34677853631011
C        26.10393582696937    3.97769196802187    4.92397115749215
C        29.55427227054217    0.80508999198468    0.36995673610989
H        29.84140801863478   -0.23094751135828    0.47736733925897
C        28.80043021701671    1.20845467921563   -0.71822162084135
H        28.49130501478584    0.48208138473758   -1.45597792173610
C        28.44065775522309    2.53801401185320   -0.86493441967100
H        27.84758511932042    2.84620131474358   -1.71329192369678
C        28.84208082643351    3.47351043333358    0.07550320873672
H        28.56403513875698    4.51106886649111   -0.03970982003190
C        29.59404157078194    3.07408785584006    1.16394637504098
H        29.90979786421972    3.78932491055700    1.91536447636462
C        29.94312134879054    1.73770551536204    1.32303158519447
C        33.49459967024229    0.11190161319375    2.40981673521959
H        33.23812672111736   -0.52375836357125    3.24471456484952
C        34.74659652007214    0.01199637259098    1.83180951016203
H        35.45945933220593   -0.70622881686937    2.21137194924441
C        35.09035859351795    0.83352230445970    0.77079794015347
H        36.06899466790918    0.75618880843418    0.32062042525724
C        34.17669434590039    1.75893706984630    0.29349572194130
H        34.44348004462774    2.40691478102253   -0.52901015916313
C        32.92351090453732    1.85822221304980    0.86941385488080
H        32.21209519036602    2.58396762547885    0.49861670116929
C        32.56299960161563    1.02511871701988    1.92583472264478
C        30.42505355463646   -0.45482831346379    3.17307819926829
H        29.34213550732427   -0.46516412185005    3.02671442141324
H        30.89641420993085   -1.15865127984890    2.48009504293257
C        30.77404779542224   -0.79454478357971    4.61919090225009
H        31.80407174619070   -1.15809556627637    4.69361885108887
H        30.12497943482547   -1.57479598551202    5.02805404388121
C        33.12091464822621    0.03818454633271    6.81550844545725
H        33.47759378397154    0.21605175451103    5.80802125392804
C        34.00034792286887   -0.31108639555816    7.82086096714761
H        35.05320989946562   -0.42506208922656    7.60591068871063
C        33.53012606031492   -0.50445549482222    9.11114038731339
H        34.21675066272404   -0.76905845372543    9.90167003477230
C        32.18197531714583   -0.35158951689433    9.38632638533087
H        31.81654408277947   -0.49925713156026   10.39207235230204
C        31.29621905619195   -0.00588480286927    8.37975827963343
H        30.24525085196314    0.11454761294470    8.59965744195536
C        31.76242490413775    0.18808590733937    7.08569218268694
C        28.01114621193540   -0.12705099161114    6.17536189934622
H        28.16011819197320   -0.98572965395302    5.53746296899253
C        26.76042325849675    0.10376739143942    6.72372603695864
H        25.95233422994730   -0.58279670552903    6.51631303759151
C        26.53558923063487    1.21487485887005    7.51848213975316
H        25.55289969052579    1.39749848695897    7.92634322153652
C        27.56817967760981    2.10391325239081    7.77435601218893
H        27.39236157570230    2.98157581658191    8.37781411568190
C        28.81671700807363    1.87903844704974    7.22917105377090
H        29.62699499698872    2.58025415817273    7.40029861031995
C        29.05095187246223    0.75729582031771    6.43169435288233

