76
CSD_code = KICGAF | q = 0 | S = 0 | Stoichiometry = C31H35N3O4P2Ru | MND = 8
Ru        4.88876613230413    4.22080404776570    3.95778322170842
P         4.99305424272575    2.32573835794221    2.64799265586883
P         4.67940757920402    5.78045117462148    2.33056244275952
N         7.47816380707395    3.50261279028503    2.92618503997302
N         6.81280760938755    4.35002892753484    3.65019684487930
N         7.55346718182185    5.23702728958772    4.24335779666123
O         9.60241106248093    1.88606289608714    2.10368752707940
O        10.88591385315397    3.72763633294031    1.97418039218411
O        11.00422009177054    5.18341367534581    4.79503972179690
O         9.75419922327066    7.01648436478853    4.43292789191435
C         3.09032126241950    3.80589820338407    5.22496452578447
H         2.12583292463164    3.35759730733188    5.02182890964397
C         3.36423490187512    5.19251431575062    5.24458775289876
H         2.66554419113216    5.97491020132742    4.96757681422999
C         4.66100535614755    5.41647986225524    5.78612541498540
H         5.07200938893604    6.38101031157285    6.04727066699351
C         5.15721382794351    4.15291760423748    6.24302626844323
C         4.18527582965731    3.14456839627789    5.89358599038965
C         4.37647988227893    1.81718503007984    6.32236810598962
H         3.61975633555727    1.06737541523474    6.12654510140765
C         5.51582612980172    1.50189417443855    7.01967848473311
H         5.67338640977222    0.48774572339527    7.35842224037981
C         6.48475835073826    2.47531295173792    7.31812256867654
H         7.36736958325025    2.17980548943849    7.86589034727879
C         6.31864068937691    3.78590900317077    6.94971823416221
H         7.04891500617827    4.53879597907144    7.21090120133836
C         8.77555014328661    3.84147506055147    3.04771036995766
C         8.81926583940823    4.96217266685002    3.89391677534660
C         9.87218292766136    3.18693616345077    2.33765690935681
C        10.60665161243794    1.17179668629825    1.40175768413360
H        10.22190040960117    0.16476754140010    1.26007696418255
H        11.53223659867462    1.15188339174230    1.98083228670745
H        10.80822366271791    1.64735799938741    0.43924735902041
C         9.98201232183563    5.69322208812810    4.41409349990238
C        10.81146636761015    7.81310733184234    4.94274625379569
H        10.53432926403351    8.84712340140246    4.75287260512640
H        11.74843348771197    7.56536766392185    4.43932225180451
H        10.93351872820072    7.64053477119538    6.01458280612873
C         3.36370360078664    1.46548027742736    2.64798221309736
H         3.36799894474629    0.62461742150668    1.95458904798541
H         2.56790216345748    2.15952079775689    2.38560075149553
H         3.18272669583723    1.10174302244931    3.65800724626172
C         6.01452906923067    0.92946517965855    3.25210214351621
H         5.81712899133574    0.04848480517175    2.64060186861977
H         5.73636316630162    0.73164370341704    4.28790552212704
H         7.06886487244978    1.18689219105123    3.21220244407498
C         4.33236335272315    2.52912554908720   -0.06003246295784
H         3.31729193106347    2.66016308558657    0.28550679810365
C         4.59715825334814    2.55390457109279   -1.41760297455048
H         3.79163366779500    2.71508519781091   -2.11997161874433
C         5.89031267643686    2.36792637075555   -1.87660660235228
H         6.09736433567221    2.38800872581915   -2.93643096459476
C         6.91366555010454    2.15154542530247   -0.96873726297504
H         7.92337995848936    2.00049926976387   -1.32208287094345
C         6.65247675591556    2.12796929278342    0.38992054302183
H         7.45335714289253    1.97472211958802    1.09359997338348
C         5.35682212797080    2.31943275337925    0.85952148197873
C         3.22865446075779    5.74450598033036    1.20837519068253
H         3.18058842779182    6.65704911712413    0.61487506390254
H         2.31422630625739    5.61894913818641    1.78637613703627
H         3.35271678487195    4.88757180205731    0.54870885807983
C         6.02650828578347    5.94203799323243    1.09944596683393
H         5.76995001070799    6.70880764664701    0.36820822875267
H         6.16026312918650    4.97823512015808    0.60621930200482
H         6.95320001830010    6.21397505838926    1.60104329724174
C         5.77505795952455    7.90714616334610    3.69418202874758
H         6.63717978108323    7.25751294981753    3.76835851755208
C         5.79676840192769    9.15692035846227    4.28329521428109
H         6.68873881886646    9.49383398637188    4.79062105547760
C         4.67569825767822    9.97068326152182    4.23223830626190
H         4.69110047369027   10.94659425880245    4.69501605411580
C         3.53003174981554    9.52393794481435    3.59693837672727
H         2.64962580370759   10.14994990864428    3.56658096719186
C         3.50377983181248    8.27403849739742    3.00138295045698
H         2.59864189946982    7.93670542389669    2.51817951676739
C         4.63177412623588    7.46199103960317    3.03243776376066

