45
CSD_code = KICMEP | q = 0 | S = 0 | Stoichiometry = C12H19B9NO3Re | MND = 8
O         4.25125231209361    6.80930977185951    1.37495567251812
N        -1.30358599063996   11.15430927648365    7.57232791800866
C         1.13004056001524   11.10932180528842    7.05035182704798
H         1.93787702781891   11.79871318331150    7.31298255297549
H         1.20198155340254   10.25777746346893    7.72916370458806
C         3.19645853095397   10.26574724517958    3.72438149759592
H         4.23224299454228   10.45681837681138    3.44334735577151
Re        3.04031864139388    7.85791031742525    4.01741090319278
O         1.99244103489417    5.03426260336665    4.66137441806811
C        -0.16084124501656   11.83477573412355    7.22411871293759
O         5.67445036939342    7.27362663583179    5.52775833701424
C        -0.23830767538753   13.18647161251171    6.96726859394862
H         0.66759033929036   13.71288476577299    6.71181686634762
B         2.82027904393270    9.81823818933619    5.29177917332682
H         3.62597441270386    9.82367677632968    6.16193601723604
C        -1.44710205582898   13.87559319160922    7.02470958591117
H        -1.49307811287362   14.93233826144149    6.82771065661438
B         2.51343486412025   11.47929957216946    4.68152685030025
H         3.15075375746370   12.33556496767697    5.18060872214866
B         2.05507074267936   11.34791899004940    3.00752204669344
H         2.43247297792737   12.13149901245181    2.21427258200579
C        -2.60136583414572   13.14425834974283    7.32840579701611
H        -3.56686521803132   13.62168370291647    7.35695454022474
C        -2.50029159378571   11.81263774604588    7.59812938252431
H        -3.36388624008536   11.21598115177047    7.84405954551839
B         2.10484508189576    9.61659285935970    2.63778518669542
H         2.46959695717885    9.30955595238995    1.55310262839472
C         1.34318813149107   10.63019078269091    5.60121974019610
C        -1.25909607092020    9.77381007824775    7.99645016349594
H        -0.72962136111436    9.68431387168876    8.94916793154644
H        -2.27326748246094    9.40485910295868    8.13181809108010
H        -0.76462606652162    9.15144578952899    7.25203657332290
C         3.80752790294275    7.18467108164143    2.36540281473383
B         0.82058257247052   11.58053509324928    4.23915916351975
H         0.20745828960508   12.56908194139270    4.43220319957209
C         2.42151908747775    6.07231146209926    4.41009331673312
B         0.54990839341585   10.38820741250305    2.94447410145911
H        -0.25425663164119   10.55114451242605    2.09716582756516
C         4.69810407602672    7.48739453097204    4.95750957748089
B         0.81660510654801    8.75846629084248    3.62457733865079
H         0.14466089550235    7.87641083089700    3.20678784272707
B         1.30261822348298    8.93129942768054    5.29981912470347
H         0.97713910077818    8.28949373415248    6.25005486947298
B         0.08583622233565   10.02616492650158    4.62722409370344
H        -1.01983762532376   10.01183161580242    5.04857515541493

