32
CSD_code = KICNOA | q = 0 | S = 0 | Stoichiometry = C14H10N2O5W | MND = 6
W         6.70503023534472    4.68641385053619   10.52991750294164
C         5.04900419417042    3.29202122786311   10.87124783054442
C         3.72407250111216    1.52074830920969   11.27646048163985
C         2.92060758094797    2.67237942717114   11.30256280962167
C         1.55989933310931    2.60366450164971   11.55319161220486
H         0.94748795684338    3.49132070045924   11.57339786350346
C         1.02575144522822    1.34887896456895   11.77834417611222
H        -0.03009433930408    1.25102769342738   11.97765227097295
C         1.82062321242185    0.20421954225240   11.75659071312966
H         1.36233345094123   -0.75533864832161   11.94016645353139
C         3.17882704529081    0.26634493394522   11.50649610252172
H         3.78292928416031   -0.62690657024958   11.49560105723038
C         6.12172022180231    1.04972206570786   10.84679574853762
H         6.07243603281398    0.28872293958869   11.63136707337462
H         7.04461673203331    1.62246214866162   10.97004889779829
C         6.09266940088609    0.39284025854992    9.46901743435898
H         5.18372730903418   -0.18976933560259    9.33707008469333
H         6.94963351823385   -0.26442644769050    9.35430944739928
H         6.13141383324816    1.15268243753337    8.69224937096013
N         5.00871890142449    1.95103535419980   11.01308124343162
N         3.77490856419800    3.71752150677834   11.04885646039003
H         3.50051351395859    4.68718970075906   11.00255073031227
C         7.65409670135030    3.50708567488962    9.22735574326548
C         7.73800561146640    3.91653358391248   12.05625238515294
C         5.85610138473260    5.96779282884377   11.80308176153690
C         5.69350998631536    5.49276792504239    9.00840993064030
C         8.17163691082122    6.00439786181352   10.24837382619509
O         8.28003544406246    2.93058967483621    8.46323927079453
O         8.36240095268503    3.52485649846022   12.93054644814806
O         5.42941069273957    6.75957213479128   12.50985348954460
O         5.14485083687391    5.98860658399482    8.13618737695373
O         9.00892155105014    6.76604267242481   10.08972440255708

