100
CSD_code = KICPES | q = 0 | S = 0 | Stoichiometry = C53H40N2O2P2Ru | MND = 6
Ru       10.51997398832165    4.25424800290833    1.49137423807737
P        12.80645230866588    4.61300350187295    1.52056450545374
P         8.34289274153924    3.56035606977589    1.86934009203575
O        10.19423080113435    4.77025578168701   -1.43681898992582
O        10.83174891624050    5.43158439070391    5.43394712607694
N        10.08230263506685    6.24125668241550    2.05161850968519
N        10.76052488665006    4.14964896552310    3.50153814258784
C        10.32437813947344    4.48869442980033   -0.31880943446659
C         9.71427873509644    7.28458146614818    1.30937905810757
H         9.57756129607442    7.10365871924837    0.25108946647724
C         9.51291992615807    8.54954582239357    1.82746468236155
H         9.20996969125686    9.35340785638376    1.17538516803296
C         9.71239613670139    8.76188771267052    3.18481092348651
H         9.57181736382452    9.73939278940747    3.62062709359631
C        10.09444820144792    7.68554363394712    3.95972261732719
H        10.26837748748783    7.76266421144309    5.02224973644468
C        10.26634727103612    6.43976936724721    3.36587846484093
C        10.65520736198079    5.26731059954550    4.22376114433670
C        11.05901007920630    2.90162182996260    4.00979694950395
C        11.21579647746736    2.58291823910111    5.34440072306470
H        11.10513893932485    3.34654542374139    6.09640083841894
C        11.52271042643348    1.27220264496816    5.71443940174404
H        11.63894424274827    1.04339143202183    6.76490963698574
C        11.68301355435960    0.28881151242659    4.77690698599238
H        11.93034460608519   -0.72127897569697    5.07347508661017
C        11.53064230178655    0.57413541990620    3.40476577532904
C        11.69165202275844   -0.40390115164878    2.40349148307499
H        11.94417938063824   -1.41471984075054    2.69324552222297
C        11.53085246528793   -0.06973858116863    1.08904178547263
H        11.65725884795854   -0.81823486012564    0.31791676230653
C        11.19775215443885    1.24125933043911    0.71323989397863
H        11.08062222903242    1.43989036099281   -0.34521272932841
C        11.02202803600844    2.24130702031364    1.64256115638651
C        11.20146312680787    1.89290372909825    3.00990270705126
C        13.24439917689687    6.37863163540241    1.72565963232545
C        14.02925574335417    6.94599054605842    2.72039857419955
H        14.50009737050835    6.32799341378412    3.46967265186250
C        14.22934854334900    8.31699268659428    2.74401174209668
H        14.83513311475648    8.75186864736723    3.52571755099813
C        13.66451394429447    9.12742216984189    1.77540614076588
H        13.82009399508736   10.19569680245902    1.80544400344061
C        12.91062309297552    8.56314417376916    0.75769252582876
H        12.48577693526669    9.18861482819323   -0.01392117826785
C        12.70288755495666    7.19918291789525    0.73549567318919
H        12.12477362281405    6.73985356751227   -0.05983035701459
C        13.83687429835407    4.29324264362369    0.04626270126446
C        15.14919157881402    4.75982687942031    0.02066989747629
H        15.54022465643738    5.30622376046737    0.86855459091181
C        15.94652545952455    4.52367902045400   -1.08232160580127
H        16.96313854065155    4.88880563480038   -1.09907982491512
C        15.44403663450401    3.81960889683028   -2.16609060762870
H        16.06946720234154    3.63881330759938   -3.02790186640568
C        14.14326855994817    3.34702718177454   -2.14099939084245
H        13.75169367239375    2.79454892402342   -2.98240768757202
C        13.34140041123816    3.58239188642896   -1.03721255255719
H        12.32707505228334    3.21228347102873   -0.99913119525315
C        13.75624908594965    3.68882335213340    2.76864679816363
C        14.37799543130712    2.50484756007903    2.37554189826731
H        14.33545475689340    2.19650356712233    1.33997033934653
C        15.02655954341350    1.71484076748416    3.30457965348758
H        15.49764314582075    0.79554745095347    2.98917521723959
C        15.06107181915023    2.09351218622243    4.63639605069802
H        15.56636197604551    1.47458697828830    5.36294615508997
C        14.42756117673044    3.25627323911396    5.03775683407054
H        14.42750869658816    3.54381227106499    6.07865082948831
C        13.76406293790468    4.04510122278273    4.11507622410938
H        13.22692560929807    4.91682743164353    4.46049313320129
C         7.53052803365466    2.32733921164648    0.79663058018036
C         8.08602343718681    1.98377498220333   -0.42716744255148
H         9.03244106054077    2.42079084301594   -0.71148197625158
C         7.43553503182079    1.09029218274518   -1.26048182227136
H         7.87487542000187    0.82156535075594   -2.20983848724979
C         6.22319817754324    0.54289907430147   -0.87777576285988
H         5.71586079554867   -0.15665363593800   -1.52571391807864
C         5.65610250055901    0.89607054515539    0.33730738038318
H         4.70609724639645    0.47513588866159    0.63309240063654
C         6.30183064325791    1.78851772034486    1.17074682793116
H         5.85840472215880    2.06720770619367    2.11705421756590
C         8.10564136264007    2.84620193813470    3.52053805889210
C         8.20586077151408    1.46920939363633    3.69962079567990
H         8.32715041425134    0.82515502167157    2.83891724334822
C         8.16561606860400    0.93293483158445    4.97294771698949
H         8.24626006662230   -0.13560300606192    5.10647493379493
C         8.04537126282736    1.76447547694465    6.07409799046611
H         8.02625273868251    1.34374410741988    7.06850624738915
C         7.96897434281881    3.13709283572647    5.90343767876042
H         7.90024996596225    3.78944598011498    6.76125088093501
C         8.00553773816115    3.67948894798428    4.63282901806556
H         7.97716373415665    4.75463509021960    4.50347210200694
C         7.03392393114755    4.83451846766204    1.72963467895777
C         5.98265927435844    5.01605016133916    2.62008864889153
H         5.89430222944865    4.39363150977617    3.49881396989463
C         5.03682655929913    5.99875089198266    2.38158134989583
H         4.22639760938035    6.13918759904027    3.08223056955576
C         5.12064867002956    6.79539690558585    1.25264142869880
H         4.38174358512119    7.56311226584086    1.07658422722949
C         6.14657857237432    6.59556087697658    0.34267834606206
H         6.20396362199015    7.19984023706640   -0.55095677315488
C         7.09371138561389    5.61874170014432    0.57995014729302
H         7.88873890789210    5.43584633959378   -0.13253833183034

