31
CSD_code = KICSIA | q = 1 | S = 0 | Stoichiometry = C10H12Br2ClN4PdSe(1+) | MND = 4
Br        6.97894128851310    6.87140291867722    3.21218465114455
Br        8.47231934894042   -3.93856163738808    6.27256503655663
C         7.94218095229083    4.21489281814728    4.04613232786372
H         6.98996498546996    3.72820102958472    4.17499084392267
C         8.21828844245190    5.53561108566536    3.66073109928100
C         9.59736190899523    5.64893764090226    3.67571163888198
H        10.21996792346596    6.49220428281207    3.45640695808603
C        11.44576576887417    4.01199761963859    4.20707567591186
H        11.51527356741135    3.44699481669131    5.15614447000932
H        12.08776821100752    4.89423536673147    4.27695372667243
C        11.89294857008386    3.15289882090306    3.01910517928813
H        12.96226886898989    2.94778697028335    3.07953886704595
H        11.69435643606133    3.68277122300316    2.08378794633922
C        12.28014035620109    0.23022602594636    3.78929273573502
H        12.25033551714610   -0.72895875540528    3.26567174967913
H        13.26565832181443    0.67320917703062    3.64177434959540
C        12.00733495377010    0.01597195896925    5.28209627285741
H        12.84736134828082   -0.52211062292298    5.72946896392254
H        11.88551322876966    0.98200958527448    5.80725924880696
C        10.66531277120959   -2.05426532001604    5.81835548446433
H        11.49277207297558   -2.70847511767568    6.00368450457467
C         9.30565181672300   -2.30606331865658    5.86901615050053
C         8.68273936465881   -1.08893573377232    5.55281960430180
H         7.63260476809305   -0.85509665540942    5.49989705591989
Cl        8.36782044675390    2.10738182110986    6.72090137715044
N        10.08208503635265    4.45135913332860    4.05359729449006
N         9.08660492753716    3.59063241832925    4.27052833684150
N        10.80893911982409   -0.75613528388936    5.49155379267248
N         9.61719933735501   -0.17988001315756    5.32789213777040
Pd        9.41233324246344    1.71039272295177    4.78707245913458
Se       10.96738709750442    1.39686502230671    2.85239006057860

