34
CSD_code = KICTIZ | q = 0 | S = 0 | Stoichiometry = C15H15FeIO2 | MND = 8
Fe        3.72677361967942   -0.93157810296253    0.00991366592121
I         2.43762441073225    1.18858340504320    0.28116129135539
O         1.97080133865392   -2.57506723804048   -1.57532605575478
O         2.02283270267767   -2.11137984337836    2.09559023813881
C         2.58980800922849   -1.89075078627309   -0.89225642345382
C         3.13678441899088   -1.65734284682743    1.60222170588532
C         4.23655127180456   -1.79853580052748    2.57649433558933
C         4.67740901626918   -3.06199117775071    2.96487818423992
C         5.72757600337024   -3.18502317317594    3.85518343775209
C         6.32971113635064   -2.05453748537728    4.38383628439161
C         5.87519229323934   -0.79586211812870    4.02367813259426
C         4.83636144034910   -0.66330713527580    3.12241149317686
C         6.13301550925303   -1.35136074802804    0.24135634117550
C         6.00794340155790    0.00127979048293   -0.06226896676665
C         5.34119864723234    0.11519148466650   -1.32379137632650
C         5.05939506281653   -1.17283671129634   -1.78789141692474
C         5.47658488567668   -2.09052130556619   -0.77711792211215
C         0.75394065106365   -1.97824755866674    1.46144251581977
C        -0.15671704148889   -1.15137560594140    2.35639249088254
H         4.20271953144907   -3.93827403472103    2.54903238962070
H         6.07401327592190   -4.16690995661027    4.14207194022129
H         7.14803147168439   -2.15476899312063    5.08106006540277
H         6.33257301853051    0.08617071157378    4.44637662634916
H         4.47159874741236    0.31618975272736    2.84937166689419
H         6.64527695397863   -1.77116038390609    1.08931575550279
H         6.41585732027370    0.82405061795588    0.49972827728400
H         5.19670923223968    1.03436901928579   -1.86772656297858
H         4.68014096030185   -1.43367223655168   -2.76218528832207
H         5.50631750083022   -3.16327227248363   -0.88498258377777
H         0.86275078386603   -1.50008619648333    0.48497794551787
H         0.36174800508761   -2.99191061414147    1.33349380542768
H        -1.15045370407613   -1.11068141073749    1.92164158707328
H         0.22819278565518   -0.13841298266100    2.44304991389920
H        -0.21656266060093   -1.59566806309689    3.34646650628648

