34
CSD_code = KICTOF | q = 0 | S = 0 | Stoichiometry = C15H15IO2Ru | MND = 8
I         2.81833227481730    1.43405771961195    0.29243054441108
Ru        3.84114122826749   -1.01121346903761   -0.12143808648151
O         1.58223736252690   -2.11725654382212   -1.70374133558569
O         2.06346597762895   -1.89356781568283    2.16840320903367
C         2.38414517236451   -1.68316428023099   -1.00366872469809
C         3.21414459938195   -1.59928546894357    1.62779260200780
C         4.29183714525144   -1.74558541934905    2.63373420716544
C         4.60896280614360   -3.00487870209780    3.14209939718240
C         5.63736204770630   -3.14508113115363    4.05538352435186
C         6.33869079600816   -2.03268370116574    4.49200299661844
C         6.00160883670445   -0.77434513481979    4.02037694425080
C         4.98489477916610   -0.62582669856385    3.09525005885224
C         6.02469681153450   -1.72778129990079    0.12133747441382
C         6.04889630798231   -0.34443321528654   -0.07563216603810
C         5.51407798676827   -0.07488171734384   -1.37849808802814
C         5.14673562349468   -1.28827508587083   -1.96541276451071
C         5.38871237195969   -2.32405795916308   -1.00774700053420
C         0.81985674202913   -1.76401115792991    1.47867370169467
C        -0.27633412246657   -1.64091605075808    2.52370082741964
H         4.05757382290386   -3.86844567989666    2.79858514196030
H         5.88826524232417   -4.12566993550472    4.43209217168838
H         7.14026688482278   -2.14571381121737    5.20644992739846
H         6.53136226822772    0.09693283858628    4.37571499008797
H         4.70550402884130    0.36001198559159    2.74830922212200
H         6.47221865672558   -2.26632257104956    0.94520491049010
H         6.55433004693690    0.38017610180823    0.54832482515032
H         5.52437330166861    0.89126309662944   -1.86712102866492
H         4.82073042006487   -1.43530172632066   -2.98690804855632
H         5.36135334659227   -3.38578026762901   -1.21932684748343
H         0.84059032029388   -0.87365449477689    0.83770585580675
H         0.67111411494409   -2.65677343496073    0.85917207715070
H        -1.24043103658684   -1.56567842421515    2.03065887352191
H        -0.11599798565971   -0.74943330154913    3.12367149013784
H        -0.27491817953209   -2.50972324402595    3.17641911767865

