32
CSD_code = KICTUL | q = 0 | S = 0 | Stoichiometry = C14H14INORu | MND = 8
Ru        2.01374408846345    1.07061521268389    3.87963028701795
I         4.35774213222675    2.26731347146106    4.43271274603060
N         1.20133203542812    3.93207945927535    3.90500179947984
O         0.79830790037231    1.54000477467355    6.56010437794494
C         1.28176149025311    1.40752938823474    5.52299575533854
C         0.81080428901965   -0.67002992478345    3.19526259732948
C         1.82146399134500   -1.19115764081313    4.06318210810545
C         3.06489341329741   -0.91457123497616    3.48526058635463
C         2.84294721380427   -0.27059326259550    2.22289127651196
C         1.46002401230546   -0.17396876380500    2.02718670784851
C         1.36733081036007    2.81747667732584    3.22472667589639
C         1.16347238040648    2.89406707573970    1.76671661169074
C         2.26520265176304    2.99283596233821    0.91521310246694
C         2.08322089479038    3.00327349240135   -0.45524407055138
C         0.80840682563494    2.91816997666566   -0.99154746352922
C        -0.29038906892908    2.83457344494163   -0.15130557701517
C        -0.11907954511729    2.82857535785479    1.22076598817118
C         0.91299405231175    5.25064166711347    3.38364544464912
H         1.39884094315936    3.91197002129443    4.90302736594001
H        -0.25047623061745   -0.86390071707883    3.28568798453275
H         1.64597311466826   -1.76689524107054    4.96282882607976
H         4.02778930532308   -1.24484893453612    3.85529593512118
H         3.60708124255434   -0.07982696737841    1.48004165404043
H         0.96305234700843    0.14098496547595    1.11931703092033
H         3.25865907210570    3.06685167033243    1.33624014602710
H         2.94118693979101    3.07728772304436   -1.10665361776772
H         0.67039784867039    2.91899752979895   -2.06231060330314
H        -1.28598586896261    2.77425334526819   -0.56580915484264
H        -0.97264373214773    2.75667655835652    1.88065989105050
H         0.76246834375505    5.20103690332422    2.30752394327706
H         1.74796670838550    5.91973402063153    3.59837488070091
H         0.01421039888361    5.64884398894930    3.85677676451033

