45
CSD_code = KICYAW | q = 0 | S = 0 | Stoichiometry = C20H19CrNO4 | MND = 9
Cr        2.62829067273814    1.58118573642122    1.68400086037682
O         2.89879417554157    4.54472851062876    1.63135481093112
O         4.47974596223633    1.87195050209697   -0.62705406554867
O         0.78091435625354    2.25597765878931   -0.54778557509506
O         4.51097114272336   -1.16718304979032    1.78531242524136
N         5.62511276287026    1.80405740206853    4.50129312065210
H         5.78356796326430    1.66390246094547    5.48652394656697
C         2.80510038794224    3.39752592557250    1.70755297287419
C         3.79346233824158    1.73788562933383    0.29632687052383
C         1.46478269051567    1.97234385852013    0.34067488972361
C         3.89947708986551    0.53097851538194    3.31106726233393
C         3.50802893812204   -0.42251128114393    2.33115986962169
C         2.14716790366390   -0.61181859754713    2.04390098010444
H         1.83046016144640   -1.39912993022390    1.37313394654941
C         1.17689504501916    0.17569970199924    2.69182536613257
H         0.12846468533358   -0.02849106730678    2.50869020854295
C         1.55141409385862    1.12764818958957    3.64017373648446
H         0.80227287726286    1.68232417077629    4.19024932775462
C         2.91696989381731    1.31178311262067    3.92352520772523
H         3.21802334474815    2.00733812313497    4.69798363808836
C         5.35755010147631    0.62043249449765    3.73093225324737
H         5.97872106574867    0.61505535028097    2.82382468995316
C         5.74158984328162   -0.62368483726626    4.56605381498061
H         5.58235720467592   -1.50958321284386    3.94889854294147
H         6.80281087304170   -0.55991055965300    4.81393666517082
C         4.92621202045941   -0.71717183943800    5.81537873846257
H         3.86792311903054   -0.89659046762892    5.67135355069028
C         5.41379126182613   -0.57143000187392    7.03395710548258
H         6.46403041183511   -0.39802640452083    7.20757832268375
H         4.79302556103474   -0.63763489281256    7.91115197795364
C         6.00347835585291    3.02314930847010    3.98591316237027
C         5.91371403392495    3.32210582225102    2.62654966963604
H         5.55297856971742    2.58570159108855    1.92467725903204
C         6.27134133251681    4.57523785692366    2.16601756573770
H         6.18715770182423    4.78719084869251    1.11105866727643
C         6.72006343210717    5.55074563443206    3.03897954612180
H         6.99237000295532    6.52854401596169    2.67292628405164
C         6.81091871215386    5.26040750755855    4.39068893722835
H         7.15953896781375    6.01179612060676    5.08466370519273
C         6.45979743335924    4.01213007181362    4.86142900276236
H         6.53212952647694    3.78911537044818    5.91787610553377
C         4.25531440404367   -1.84602647389946    0.57262928816806
H         3.60951536354556   -2.71670477590540    0.72472065136792
H         5.22731649091772   -2.18241155131760    0.21658876127803
H         3.80793772491602   -1.17273254773295   -0.16539406690792

