85
CSD_code = KICZUT | q = 0 | S = 0 | Stoichiometry = C31H39BIrN7O6 | MND = 6
Ir       24.04252248501738    8.64111261108444   10.67718213600805
O        25.59504210049865    7.76599170009485   11.73337637078354
O        29.50612652338055    5.82549456528934   16.21207775922406
O        21.98049590033737    5.47243541108309   11.52386278101234
O        20.91176600502007    7.34713154811073   10.92847510559920
O        23.96092952643951    5.46016578502893   14.92434680716841
O        22.00162447688835    6.39977778026423   14.33431337056091
N        23.97296354851898    7.12835173382998    9.28811997070204
N        23.60060790058754    7.45448288504659    8.02746604702699
N        22.44891871713250    9.59729604493639    9.72961939146511
N        22.40222431198842    9.59397834851962    8.38691836044520
N        25.28714941319334    9.59113147018212    9.16625849537369
N        24.83797740911927    9.59131728787684    7.90231157129545
N        24.28030677785025    9.99925152389353   11.97846703801638
C        24.23821433941627    5.82026365292143    9.31044472443114
C        23.98910551293739    5.29119495661506    8.04079186148293
H        24.09262033975942    4.26728303949194    7.74511553829499
C        23.59092342659063    6.35237039865270    7.25589633596182
C        24.77273166099650    5.05036307995769   10.45780203666681
H        25.05896272193528    4.05744081589716   10.12032874005775
H        24.02423231463550    4.95199012282407   11.24089261859710
H        25.63746177772937    5.55371081775177   10.87702022148089
C        23.20836349764755    6.34157444590380    5.81930516111987
H        22.23003755046757    6.79580973044750    5.67639454014171
H        23.17690420182477    5.31487637979604    5.46463566733562
H        23.93033069888244    6.89534000684881    5.22134036537636
C        21.39032286483885   10.27565536939183   10.17390823657261
C        20.64445290424625   10.71245306285621    9.07798049931525
H        19.73730413746856   11.28115023625634    9.10346027679641
C        21.31707905176150   10.25958544117512    7.95967498211981
C        21.04827455472399   10.52086976147513   11.59871912855723
H        20.55139260623904    9.64400406437920   12.00921925034732
H        20.36949369053031   11.36811524541023   11.66601538664045
H        21.93867920578976   10.72513391348590   12.18558348235676
C        20.96250008027192   10.44553528526429    6.52867291961373
H        21.74792021175321   10.98586282028841    6.00359852036037
H        20.03757044154776   11.01116704346377    6.45602763241248
H        20.82741187733535    9.48418819950879    6.03710880425422
C        26.49042661294564   10.14927698011562    9.18559818779751
C        26.82583782780679   10.53614741891201    7.88468839174128
H        27.72883682200177   11.01497542807850    7.56436084735887
C        25.75247288774661   10.16163132014786    7.09675796934420
C        27.29002728095519   10.29098850339711   10.43010990796917
H        27.07605966950202   11.24412781408563   10.91467171972186
H        28.35142257867415   10.25552091055848   10.19673045523773
H        27.04029254748211    9.48382252114717   11.11419631086282
C        25.57636853838098   10.32567711045162    5.63017307269756
H        25.48951176456604    9.35609398693273    5.14285206709151
H        26.43464044988346   10.84934608791664    5.21800340645750
H        24.67554691242614   10.89594797564817    5.41104896120777
C        25.20163715771521    7.18257465369485   12.83387739607800
C        23.87151650396121    7.00023697277359   13.10170932479264
C        22.89160280920830    7.63317677523656   12.14164296015712
H        22.28914400779905    8.37820336546384   12.67081202710625
C        21.93268101639986    6.67915892984196   11.53464620071765
C        19.98240135669089    6.54138889871588   10.23102394720128
H        20.48357395323436    5.98173812303407    9.43687736560898
H        19.24444771918090    7.22040675067038    9.80916341197021
H        19.50603790138072    5.82969246327987   10.90962056008722
C        23.34875981653534    6.20990025397045   14.19091633624864
C        21.36879151687488    5.56720099677653   15.28362954406976
H        21.31840455527957    4.54088044218684   14.91178201841440
H        20.36619405093131    5.96621771712426   15.42527728264638
H        21.92243487311791    5.57076139334325   16.22619832503848
C        26.29953907188580    6.80730781989945   13.75327286549221
C        27.45052632916753    6.19639835223928   13.26241758736953
H        27.51753131891941    5.96075459199116   12.21133902065936
C        28.49519775264958    5.88150611644205   14.10306111522211
H        29.38279757311951    5.39245405809537   13.73313761769970
C        28.42273955398028    6.18422288900531   15.46234716851937
C        27.29277449140431    6.82993181687292   15.95273482406026
H        27.21254393138708    7.09372126719993   16.99598960377440
C        26.24819144203712    7.13848217456331   15.10078647336517
H        25.37635551258110    7.64016246249152   15.49224812068443
C        29.45248914731080    6.02322917672749   17.60245370525524
H        29.39889845164758    7.08738890542569   17.85786794002643
H        30.37917786504497    5.60780552636959   17.99625541326714
H        28.60186700975262    5.49962634119952   18.05025041808994
C        24.72282499745988   10.50099020465747   12.91669545416848
C        25.25133642482466   11.13087115827105   14.08754786271657
H        25.65396055461736   12.11324455167867   13.84113179613718
H        26.04791741069192   10.50374737599829   14.48993156367643
H        24.46813039511282   11.23878783798458   14.83813061760171
B        23.49837210637318    8.91281912736376    7.56457785727932
H        23.26991276406196    8.98119786669797    6.41242284234103

