83
CSD_code = KICZON | q = 0 | S = 0 | Stoichiometry = C30H36BIrN8O7 | MND = 6
Ir        2.60858487653909    2.44868983188339    3.31409029185310
O         2.99527400250636    4.19342244272945    4.38565397972111
O         4.25426279240266   -0.54742207166409    5.37054883586878
O         5.59171150912804    0.44274372003903    3.85928095445195
O         6.00458173576329    1.46643056629470    6.67412317398411
O         5.13926046656336    3.23153174810067    7.76094992594216
O        -1.78480508970061    5.26143346673426    9.12633976621356
O        -1.45934193094918    3.23043727792623    9.74917228414223
N         4.20320635702130    2.71879334897821    2.04365952266047
N         4.04605268798760    2.34190848660760    0.75499570116881
N         2.17928521703515    0.64312748064332    2.31822188300685
N         2.29951154248379    0.60109372465170    0.98088239429351
N         1.47534494185406    3.37140364119193    1.76110212705263
N         1.66057418026269    2.94893433348791    0.50070136652678
N         1.07878983301444    2.23332092893587    4.38583224810166
N        -1.15027088985272    4.22491866749647    9.12058715448428
C         5.44463294236114    3.18519839981392    2.18148392729962
C         6.10213319629912    3.08982328977704    0.95361720703328
H         7.11117977441161    3.37969812219242    0.74258149132170
C         5.18590625055527    2.55131478873290    0.07394951530999
C         6.02317567793481    3.75005396669601    3.42451063217482
H         5.28057335079606    4.36337104131968    3.92360648647014
H         6.89329575898455    4.35365984500102    3.17628011734387
H         6.32991089159519    2.95021961652094    4.09539791173032
C         5.36898945097479    2.24150239674083   -1.36827844522575
H         5.17012834731716    1.19009239808245   -1.56615970227949
H         6.39222052838419    2.46646844361971   -1.65643373162033
H         4.69374854836490    2.83564076659821   -1.98138913143408
C         1.73812891657792   -0.54438195063237    2.73314689056003
C         1.58813627166949   -1.37646129955020    1.62091613320847
H         1.25850406641645   -2.39528420914191    1.62141870192693
C         1.95279227278389   -0.61491953123621    0.52687728453148
C         1.41168807876192   -0.89875494170773    4.13858287943780
H         2.04100265973544   -0.36186497998178    4.84044129170987
H         1.55931480742750   -1.96589351692768    4.28456259561288
H         0.36818423080051   -0.66545589390213    4.35103213936552
C         1.98107484753993   -1.00518139004049   -0.90644333728503
H         1.30019657936411   -0.38692644340546   -1.48863870506867
H         1.68237763621593   -2.04525854898631   -1.00420900247663
H         2.98143946921667   -0.88507412661396   -1.31759223039000
C         0.60315650382388    4.37208597041485    1.74538566805406
C         0.20047693302146    4.59384158276499    0.42557239173414
H        -0.49524889767971    5.32958943625522    0.07670734307332
C         0.89615258294410    3.67296404249075   -0.33666673838735
C         0.19457487719542    5.09957353368610    2.97413734916254
H        -0.72177260739212    4.67699081338963    3.38696307620523
H         0.01347819392491    6.14647637186137    2.74238037238579
H         0.98984982752845    5.01740528975639    3.71102500748829
C         0.85569631711341    3.46868236958942   -1.80801293665040
H         1.83284864504024    3.65662340818387   -2.24945359477456
H         0.13472806571569    4.15173681134866   -2.24889517490882
H         0.56714437183293    2.44706339889734   -2.04837566470306
C         0.08809805734167    2.19578536845298    4.97099569343619
C        -1.15083211720714    2.12083448653547    5.68328194616995
H        -1.00242361765472    1.61191124161820    6.63565917134502
H        -1.88237759042742    1.56963400611188    5.09193820916347
H        -1.52814177073351    3.12601118554889    5.87128093343204
C         3.86690926407865    1.72751478625632    4.75921407433337
C         4.14194600124107    2.60950482845386    5.73582298610436
C         3.41637274520994    3.93386519137976    5.68411677949994
H         4.10899318946375    4.74241329149929    5.99010830225110
C         4.57827787772202    0.42994591847167    4.73813210838345
C         6.36168710332619   -0.74615591224097    3.79851234397187
H         6.83199827048451   -0.93154356075930    4.76627322544828
H         7.11379992303786   -0.58332597391312    3.03038567217549
H         5.72644351743295   -1.59797823454159    3.54404016860840
C         5.18202258848203    2.35044144653616    6.74244763859008
C         6.12420696980079    3.05682282511918    8.76705729650888
H         6.07569863788557    2.04479345913663    9.17445236263373
H         5.90546428539047    3.79178006338471    9.53752685852212
H         7.12228505825900    3.21920481618557    8.35411121958465
C         2.24295205630054    3.98691265277376    6.65281882072124
C         1.43776654785121    5.12467219568060    6.63762818605404
H         1.69318599327021    5.92990110888033    5.96647664363212
C         0.33007675740671    5.21892142725331    7.45152736903890
H        -0.30438875114106    6.09236092235371    7.44731513869442
C         0.02239951718324    4.15874483420670    8.30006471235883
C         0.82485867030236    3.02229700187582    8.33964393023077
H         0.57006217415090    2.22299499549908    9.01964183358501
C         1.92706280355734    2.93930806455410    7.51361240421590
H         2.54309376611566    2.05441219350550    7.53087916451313
B         2.70168932660736    1.85727043371040    0.20078146099394
H         2.76377114566166    1.63835807085279   -0.95351628158477

