60
CSD_code = KIDBEG | q = 0 | S = 0 | Stoichiometry = C29H27ClNRhS | MND = 6
Rh        3.71414904334348    3.05945620395172   12.53733708954168
Cl        5.71277875194257    2.06515915871111   11.92858768530052
S         6.52354929220389    6.31290085272309   14.09851570317583
N         5.14625272172850    5.60673558312043   12.11895995095905
C         4.85714881630634    4.62977486228893   13.04161706033898
C         6.00923110120557    6.55968976276158   12.49536553278696
C         5.54012057182280    4.86460333733038   14.21366055940837
C         4.42250052370389    5.67495139613778   10.89526251975888
C         3.64452146103711    6.79551114683702   10.63357230539337
H         3.62051781803558    7.61292526182845   11.34018287405605
C         2.89171878492352    6.84620905398383    9.47364859359713
H         2.27924640625424    7.71226756743994    9.27310312317873
C         2.91867823125403    5.78826140538555    8.58031570253963
H         2.32628048680971    5.83127408304456    7.67849738696931
C         3.70718989760371    4.67971886319831    8.84063957694784
H         3.74231333150798    3.86171962888412    8.13690958522153
C         4.46178880256521    4.61069118239415   10.00107465146213
H         5.10322864754493    3.76154860856389   10.19729525334701
C         6.50607891264575    7.64731732383518   11.67906556604244
C         6.82081558873649    8.86803204337882   12.28250108588546
H         6.66965446729470    8.98513798709421   13.34567198420258
C         7.30549890506333    9.91700077306912   11.52775429730050
H         7.53752679209724   10.85717531938444   12.00490573019617
C         7.49358253608720    9.76445695847684   10.16315052774562
H         7.87084626065246   10.58598544141744    9.57347868365875
C         7.20659272022529    8.55009692582380    9.56034511369973
H         7.37012125663929    8.41997737910375    8.50130942885093
C         6.71815476919718    7.49550989221191   10.30590367282991
H         6.52566449296018    6.54608910800990    9.83120175456937
C         5.52553957448815    4.11725351026602   15.45255614546160
C         5.02194578488353    2.81391173594737   15.49805528068755
H         4.66430203468139    2.35010228667283   14.57898424055294
C         5.00703506017039    2.11168232956908   16.68581774251484
H         4.62057838155609    1.10318704977063   16.70452065515357
C         5.49296406249962    2.68704080556434   17.84965590953141
H         5.47921500744746    2.13430944138796   18.77729813563981
C         6.00319317463904    3.97465552586076   17.81503551935725
H         6.38909123235787    4.42904945565826   18.71593567005316
C         6.02015443895385    4.68286124569591   16.63039385862436
H         6.41610532271674    5.68991993276614   16.61303991627561
C         2.12460381013730    3.63563068711280   13.79904206197276
H         2.46254266288715    4.35214123652845   14.54933848991994
C         1.87208390736601    4.12156700023373   12.51391969976640
H         2.04303991229807    5.18468723708442   12.34720034220384
C         0.83593677465767    3.51778934666124   11.58842465721385
H         0.01811490737687    3.11438406819143   12.18863107652048
H         0.41678233932417    4.30938296847174   10.96299537142545
C         1.42139198286001    2.42468138178011   10.67404701763467
H         0.64885040385588    1.68647229330532   10.43013117742398
H         1.73832290482969    2.88457119790204    9.73533292967244
C         2.61219259771464    1.71449476684674   11.27684392528767
H         3.31367472554028    1.32140543714615   10.54071454384404
C         2.64111039083295    1.17523982662282   12.54710012460999
H         3.38305736956587    0.40372548233545   12.75371788884442
C         1.45290485022421    1.19287096176767   13.48320000775818
H         1.46921057411377    0.29112531416927   14.09908207087716
H         0.53600286407229    1.16242984411953   12.89187078504316
C         1.45288036029992    2.42554370531413   14.40772962414552
H         0.42447343390431    2.68560571780380   14.68478401374498
H         1.98224776290139    2.17980109644853   15.33176811979078

