60
CSD_code = KIDBIK | q = 0 | S = 0 | Stoichiometry = C29H27ClNORh | MND = 6
Rh        4.38544503797246    2.31439965927155    8.79420859639024
Cl        4.29651826033839    4.61902188733596    8.87188809612343
O         6.92026658756643    3.09357277461569   12.05987422755882
N         4.83613608661615    2.59128320823190   11.75021796496982
C         5.40765656814493    2.52231426189330   10.49219508298634
C         5.75848043006127    2.94790253580529   12.65970154725061
C         6.73347737352565    2.85420196830942   10.72783558869992
C         3.50336658603016    2.18829385587572   12.00319801130112
C         2.46790960415813    2.73931378462911   11.25692057673940
H         2.67700232158547    3.52720478255363   10.54364513272283
C         1.17473239788409    2.28736328748591   11.46380707941804
H         0.36590197401130    2.71355425323768   10.89022187091792
C         0.91867767343433    1.29656481980160   12.39705108806261
H        -0.09039384558477    0.94396485486278   12.54966113016068
C         1.95731206961180    0.75331707362656   13.13632763939292
H         1.76090326855548   -0.02232304705077   13.86093970334402
C         3.25386341275146    1.19364222169233   12.94146917522515
H         4.07053178692080    0.76558892033217   13.50483651348200
C         5.60838647267948    3.21225986295397   14.07070323526259
C         6.73345802645518    3.11336982576551   14.89670756681915
H         7.67971301693115    2.82388171355009   14.46574853853993
C         6.62950553161933    3.37524628534704   16.24738994109603
H         7.50198295121108    3.29164312117797   16.87768048844113
C         5.41016496417630    3.74427915552140   16.79418590409610
H         5.33030885924886    3.94608311954581   17.85146000424397
C         4.29617218817024    3.86464824353136   15.97785968195428
H         3.34976194643792    4.17011374772077   16.39764862240051
C         4.38647646359991    3.60533860082934   14.62483607288036
H         3.52077756422545    3.73000730553462   13.99374296846793
C         7.85455911015014    2.96024022616262    9.82289037352344
C         7.65026050231804    2.87764639673610    8.44316830839965
H         6.63360088526009    2.75629504126171    8.06753783433402
C         8.71920129328890    2.97769623093384    7.57717570281186
H         8.55480667266252    2.91911124217750    6.51130819247400
C        10.00372410254015    3.16006842392287    8.06786508777606
H        10.83838931871670    3.23738267438495    7.38684237938646
C        10.21313631505649    3.24988031089437    9.43452164589496
H        11.21181760742287    3.39813226719496    9.81920516983393
C         9.14936066262419    3.15241925945753   10.30968879124860
H         9.31259794576979    3.22565155083247   11.37485246477347
C         4.97587647344069    0.32556285865638    8.33863806630918
H         5.94112845176805    0.11656009828997    8.79968119229202
C         3.85586714611137    0.30677387279712    9.17413603011550
H         4.01623542914111    0.03552814109942   10.21849390654691
C         2.44676517717984    0.01557296065355    8.70916845761289
H         2.34897139211512   -1.05646609121276    8.50086906898344
H         1.76884586286296    0.24598135248580    9.53505449680121
C         2.02967151223705    0.83325454612771    7.47191070108056
H         0.95296513197287    1.01081877739065    7.51435133377939
H         2.22671593625751    0.26749125230890    6.55956059251510
C         2.74716105277674    2.16287391445774    7.38878669789155
H         2.12158277628638    3.03866245046588    7.56158171031131
C         3.92630775873138    2.34613421235517    6.69531227661505
H         4.15354325942921    3.34879287216909    6.33178807187687
C         4.68774520698625    1.24895181731359    5.98631054083755
H         4.15401282364901    0.97517154884061    5.06904808967110
H         5.65951095762631    1.64819050156602    5.68545208469515
C         4.90930213984868   -0.00096696851433    6.86064840654340
H         5.84472497704685   -0.47766884598446    6.56002673659603
H         4.11091654040149   -0.72649497924661    6.69436353953580

