45
CSD_code = KIDCIK | q = 0 | S = 0 | Stoichiometry = C18H22N2NiS2 | MND = 4
Ni        0.97647258274508    2.01196223035554   10.17441526877498
S         0.08222496179986    3.91695676855459   10.60739680228662
S         2.23875606465480    2.33525142620989   11.88185577614555
C        -1.65579968069056    3.78260679526099   10.50213031674266
C        -2.36683966395788    4.94525630273252   10.81654269008326
H        -1.80635872681035    5.81668470123294   11.11776712216222
C        -3.74105456523874    4.98340831598972   10.74262624211487
H        -4.26741935498662    5.89362517221905   10.98879131265775
C        -4.44548703771194    3.85272077595592   10.35631397625917
H        -5.52294717491579    3.87076473736291   10.29591783090159
C        -3.75318839860059    2.69719461051763   10.04952784458336
H        -4.30058845705483    1.81248780712223    9.75230595849951
C        -2.36694555740976    2.63916569211808   10.11508701735429
C        -1.68487236013170    1.33283091606412    9.81413148592465
H        -1.31157931554296    0.89910667383734   10.75939273135712
H        -2.42785540372834    0.64322506897654    9.38482013525586
N        -0.53192594403981    1.44523862231927    8.89605161524505
C        -0.89874020828780    2.23509829738118    7.72133104149409
H        -1.12197880061446    3.25872952384145    8.01487237571043
H        -1.78085118176765    1.80798670460579    7.22693862027995
H        -0.07261552048963    2.25678147213105    7.01238637573520
C        -0.09022403434705    0.10461109947254    8.47532141236458
H        -0.64077567068697   -0.22590250157398    7.58378744448669
H        -0.29389729761717   -0.60553678442177    9.28149885532995
N         2.13295607938426    0.48170999138766    9.43454063568368
C         2.41272107336209   -0.72727101967575   10.20825983451250
H         1.49025019136119   -1.27450646297447   10.39539826401201
H         2.85158190093259   -0.46227910921424   11.16796776781727
H         3.11031620711065   -1.38041139853944    9.66811009578063
C         3.39560597923607    1.17353571424617    9.10029703618303
H         3.12945272995946    2.16282190639852    8.68691434310088
H         3.92940565709563    0.60428837770462    8.32381208494322
C         3.88440824697314    1.90344914656025   11.48778331645032
C         4.32180168592554    1.36793636137582   10.26928501993214
C         4.81714233141732    2.10326657407530   12.51066661804519
H         4.46718872533572    2.52189461272023   13.44156009997188
C         1.41234307035735    0.12666781456994    8.20018372819442
H         1.74933266263787   -0.84683590692422    7.81769084056654
H         1.62264163839520    0.88190101805186    7.43770663840611
C         5.66407424310971    1.04447746761833   10.11773903895755
H         5.99985873639476    0.63165123157764    9.17566502148625
C         6.14323909882162    1.77425483428369   12.34152301550760
H         6.84401363166615    1.93617523501178   13.14704149144953
C         6.57596292262055    1.23931159611159   11.13714940025934
H         7.61319393333433    0.97780758736942   10.99339545699060

