43
CSD_code = KIDCOQ | q = 0 | S = 0 | Stoichiometry = C18H20N2NiS2 | MND = 4
Ni       14.79016892582166    2.06826590570591    4.20180059954404
S        13.96394077627493    0.09775300341198    4.34050041662073
S        15.33603952338782    2.07281725693995    6.27225331771888
N        14.40007986173001    2.35693410107599    2.22033983011123
N        15.48837091796890    3.93449316787911    3.76275917373970
C        12.47857947798617    0.37089051021669    3.43275959077740
C        12.44728958244185    0.89492102312982    2.13124878394765
C        11.28338232511563   -0.03260445604190    4.02782325022702
H        11.32322782519163   -0.44903335316631    5.02224463249095
C        11.23016157572622    1.03590876830582    1.48370571811037
H        11.20923273941430    1.45069960799576    0.48449578622113
C        10.08146612043654    0.09744022755909    3.36240527969490
H         9.16564196183941   -0.21866470328858    3.83941904306065
C        10.04891564287644    0.64102930117852    2.08796134032423
H         9.11111670294185    0.75629799859169    1.56561529114898
C        13.72922861479316    1.30220517694103    1.45766114380636
H        14.40332498893940    0.43807506994603    1.43193543209326
H        13.53277903218675    1.63382761525348    0.42665143227901
C        15.75164647838308    2.62917228390284    1.72593105120654
H        15.71673189290621    2.96330884823797    0.67684811060081
H        16.33245283608105    1.70333948171692    1.77213100442852
C        13.65135868763238    3.61523497662314    2.19613583361704
H        12.60452996713617    3.40567255299930    2.42834957368357
H        13.69804545659833    4.06197864309402    1.19044221466295
C        14.26434152814528    4.55643282613455    3.25266587175526
H        14.48730144041959    5.54380445286677    2.81813934052181
H        13.57156083905668    4.69727744599230    4.08744257486618
C        16.38472646478246    3.70857003354749    2.62699482922696
H        17.35355761954705    3.37405946677325    3.00549445700124
H        16.53723876186636    4.64911630359560    2.07437457695170
C        16.12295117958197    4.73162873231970    4.81448113232239
H        15.35696260850909    4.94804597302719    5.56824952521259
H        16.50223601840198    5.68100496877033    4.40657743473886
C        16.95748174675815    2.74423744990286    6.11277366626109
C        17.23672322623367    3.95752934946039    5.46508866580705
C        17.99791499560868    2.05583762466784    6.73638845892998
H        17.76702233635132    1.13244343552180    7.24422445161671
C        18.54118622891490    4.42387596079402    5.42693438370730
H        18.75401574015572    5.35446230020262    4.91740825424161
C        19.28880079035358    2.54263477965760    6.70438264697057
H        20.08232727663876    1.99500047808161    7.19079892783551
C        19.56763490252289    3.72737197435569    6.04154028143010
H        20.57690438234113    4.10880343612007    6.00302267048636

