53
CSD_code = KIDFIM | q = 1 | S = 0 | Stoichiometry = C12H36CuP4(1+) | MND = 4
Cu        4.11765800553740    3.15679515385615    5.53752691323128
P         2.86493429536347    1.21941733054626    5.29507682749575
C         2.08349950395157    0.74286480994899    6.88249699467386
C         1.42199770509589    1.12747197021434    4.16601757123511
C         3.73572827319144   -0.33655992515250    4.86456359672593
P         5.14762878170462    3.15669588541821    7.63332467227608
C         4.38384843522140    3.15683928202944    9.30368421605474
C         6.30984502210571    1.74784764249643    7.79177366138770
P         5.82746079819842    3.15683430153137    3.92434076314600
C         4.89381031596328    3.15662525631563    2.34674650753124
C         6.97063676959217    1.74899886627902    3.63607991782143
H         2.86389753064999    0.57789875231885    7.62384632358312
H         1.44362787952526    1.55500516627126    7.22447799027388
H         1.49165307936592   -0.16479536106565    6.76647082718693
H         0.69477547441474    1.88374107776469    4.45611251531873
H         1.74360221286346    1.32740501062819    3.14519954216960
H         0.95994930205632    0.14180138269762    4.21526726005147
H         4.07214650154657   -0.28595786890613    3.83007972723105
H         4.60381540016785   -0.45256525055912    5.51173192657371
H         3.07252330132769   -1.19250953822896    4.98751181661277
H         3.75823849707808    4.04053873065919    9.41657925905486
H         5.15409103885729    3.15677188386974   10.07456775490269
H         5.74431367615191    0.82098563596574    7.87485024628611
H         6.92726038386237    1.70022140640422    6.89593802030004
H         6.94493923081814    1.86599534664746    8.66951575469201
H         4.25874608462284    2.27225874170628    2.31300554287748
H         5.56858531884491    3.15661415244448    1.49100239477882
H         7.73535572802248    1.73937440557968    4.41139175664625
H         6.41432473987577    0.81482463262129    3.68260177355647
H         7.44860414883440    1.84100911084717    2.66104549565596
P         2.86487987898831    5.09414148975975    5.29514711760482
C         6.31019027376270    4.56526891996027    7.79167388282644
H         3.75802534891156    2.27329768223144    9.41663412075182
C         6.97036832173800    4.56484014007255    3.63585152556695
H         4.25859908115635    4.04088120351814    2.31286817865549
C         2.08368003095142    5.57079628255903    6.88265980718828
C         1.42177162498985    5.18599542084276    4.16629391012878
C         3.73558901340656    6.65011112021453    4.86440827228315
H         5.74487987739376    5.49227117757230    7.87469327351837
H         6.92761202189725    4.61269015878053    6.89583093779214
H         6.94526199507711    4.44702340111921    8.66941921394101
H         7.73509182685788    4.57473435819983    4.41115532567879
H         6.41387981584522    5.49891632859237    3.68223142618054
H         7.44834339666674    4.47276657761984    2.66082676801534
H         2.86418510808000    5.73580356432581    7.62389139824118
H         1.44385244045029    4.75867368655668    7.22477490189553
H         1.49182043643470    6.47845263804838    6.76667090446377
H         0.69461961722452    4.42969264032088    4.45649154891921
H         1.74325103357275    4.98606836665605    3.14543122148465
H         0.95968608789282    6.17164597131181    4.21559748082028
H         4.07183553087830    6.59946420342994    3.82986558627084
H         4.60378390633087    6.76615633595047    5.51142933066062
H         3.07239589667977    7.50606034120416    4.98742629777971

