53
CSD_code = KIDFEI | q = 1 | S = 0 | Stoichiometry = C12H36CuP4(1+) | MND = 4
Cu        2.63172692605586    2.95387914127248    2.02597762849167
P         1.37747559954580    4.88910205972540    2.41007584575680
C         1.45130747994962    5.23043195147141    4.20930134439609
C        -0.42181900465106    5.08733750423894    2.10299843025856
C         2.00875533790170    6.47868063224047    1.74466345496506
P         3.10494601362590    2.86969976212841   -0.26209075741250
C         1.53660909664751    3.20675657135593   -1.14851980636751
C         4.17670135105477    4.18024496769984   -0.97042649027293
P         4.66704911538398    3.20650249004379    3.15044522225941
C         4.95523317049846    2.95189715337142    4.94584847770686
C         5.61611530963348    4.75313510989183    2.87609831372078
H         0.99562422433971    4.40165758793450    4.74912441983051
H         2.49592203435007    5.30695913501966    4.50842544621955
H         0.93083607595810    6.15629081785228    4.45325863551269
H        -0.61980356922239    5.01669920579732    1.03467546729608
H        -0.96225467896558    4.28993607014721    2.60947196820445
H        -0.76756034713927    6.05253539791608    2.47225987167838
H         3.07757204575187    6.54841408078814    1.94036131540187
H         1.84607815781929    6.51132937198152    0.66838640398982
H         1.49691506551773    7.31929613582293    2.21285045164172
H         0.81764506761167    2.42379634575178   -0.91156104067863
H         1.69627866632278    3.24295970119869   -2.22593712853720
H         3.87127701183078    5.14645325196074   -0.57212157475963
H         5.21132001654423    3.99421940348134   -0.68583902349793
H         4.09811049969354    4.19259416674758   -2.05734999501195
H         4.40360082621742    3.69951855482649    5.51348330977882
H         6.01721544698642    3.03337087440533    5.17625087937194
H         5.61381927828438    4.99108360153854    1.81368005276237
H         5.14224277448397    5.56918977692643    3.41971575375212
H         6.64323934343253    4.63786935365597    3.22172534727135
P         1.50702317976130    1.06088549801728    2.73243957185841
C         3.70796675114478    1.40531430478294   -1.19104341727282
H         1.13756538560644    4.16008477101833   -0.80441062460228
C         5.82717493133310    1.97432158281964    2.44681169171925
H         4.59646770559968    1.96491693285071    5.23137146199592
C         1.94784773210703    0.40161839753568    4.38513514545105
C        -0.31708381983774    1.16715156435057    2.88166075449937
C         1.68002798325915   -0.44776238525465    1.70543435935620
H         3.04380539197511    0.56341224284857   -1.00531337862997
H         4.70712994684039    1.14184029553570   -0.84798484929226
H         3.73623322027440    1.61735596673586   -2.25957572532584
H         5.88244375075191    2.12038233160831    1.36881296305710
H         5.44570539484388    0.97308568744572    2.64198260780004
H         6.82041762876887    2.07870568558794    2.88291988820193
H         1.82427156345216    1.18655917512413    5.12972293618324
H         2.99038810149880    0.08741436246351    4.37503262752077
H         1.31518394172758   -0.44765397239945    4.64193847286474
H        -0.73751220844524    1.48613355270288    1.92912310426906
H        -0.56862050297032    1.90512122990917    3.64186110559807
H        -0.73716541420629    0.20108464638187    3.16049087857797
H         2.73706817826622   -0.68103965974769    1.58637425996017
H         1.24840939969526   -0.26074460201209    0.72339943989437
H         1.17067342309528   -1.29092778550245    2.17138450258753

