137
CSD_code = KIDFUY | q = 1 | S = 0 | Stoichiometry = C72H60CuP4(1+) | MND = 4
Cu       11.58649340945698    4.70125756205386    3.01303179582841
P         9.39181268945035    3.81076253712851    2.44231224501920
C         7.94457866381396    4.51023067919658    3.31918900400186
C         7.90017404129796    5.89417797462415    3.45877820081295
C         6.84242423909623    6.50177195421115    4.10646116546997
C         5.81794713410446    5.72749727161527    4.62687418314440
C         5.85840742452277    4.34859743047038    4.49611238227814
C         6.91596592605367    3.73586468577094    3.84706761930153
P        13.27691803212281    3.72337787004610    1.56137906421917
C        13.14579644759728    4.08280158145441   -0.22874347967217
C        13.25995102527949    3.11300684434226   -1.22006603363554
C        13.14553996746559    3.47435340001909   -2.55102374689713
C        12.91382536195129    4.79429887107941   -2.90343502342728
C        12.79448704627607    5.76204209273115   -1.91913291840509
C        12.90791692421519    5.40556291534395   -0.58962367579874
C        13.39315937103334    1.89678513607284    1.53227744701313
C        12.19519282319863    1.18920354494150    1.52439729122570
C        12.19356006251928   -0.19164660451454    1.49629917450367
C        13.39597527072477   -0.87998507968355    1.48191953171431
C        14.59302792861996   -0.18197643620338    1.49725295828293
C        14.59861204133582    1.20160268195837    1.52365847783693
C        15.02893494779203    4.16240483588924    1.86239648544531
C        15.45583838294721    4.17909084021972    3.18674546196958
C        16.76358843215250    4.49347654738871    3.50034666546696
C        17.65893941201217    4.79925205832988    2.48803490063193
C        17.23942995647953    4.78996987567572    1.16746519117121
C        15.92992578775318    4.47524772495580    0.84914342184000
H         8.70617152169918    6.49344902342614    3.05760915008750
H         6.82186568198820    7.57642446972375    4.20691644562083
H         4.98944208493649    6.19728102889813    5.13483193188332
H         5.05985776438312    3.74368476226648    4.89955236485480
H         6.93797372807132    2.65973403800985    3.75234236326454
H        13.43766235556150    2.08024157203877   -0.95637796996570
H        13.23954233221355    2.71882206304913   -3.31697014105867
H        12.82437178666292    5.06736147635041   -3.94386869554685
H        12.61065063454324    6.79233783071885   -2.18385108369262
H        12.81106531547435    6.15660199586654    0.18250000895264
H        11.26010746481954    1.73221677715821    1.54696850851738
H        11.25571323223332   -0.72636517791406    1.49061858148132
H        13.40111412763241   -1.95918807816665    1.46072830203808
H        15.53090222861713   -0.71737120750940    1.48549493300621
H        15.53776374942376    1.73590686598260    1.53630549444056
H        14.75062542531028    3.94773195930389    3.97333690728492
H        17.07980857717096    4.50287075130551    4.53245929917327
H        18.68195108167026    5.04674440602798    2.72749699236334
H        17.93614633565434    5.02769583671478    0.37727551998700
H        15.61304922845176    4.47273397225564   -0.18386092648257
P        11.59536358888166    7.11816724078197    2.73086853861205
P        12.11762671637833    4.16723456003166    5.32687019546550
C         9.11246565784558    2.02131794414736    2.71158639427076
C         8.84112755675466    3.97673458707318    0.70396405255448
C        10.47257043964965    8.08573609132937    3.80513911382369
C        11.12872415243157    7.76533747551690    1.08337965479672
C        13.17039452221575    8.01122690221158    3.00407325145385
C        12.27399931263956    2.39489345052079    5.75729790875547
C        10.92824524586078    4.72187016183699    6.60301744030472
C        13.68022725050589    4.81910257545541    6.02419943266157
C         9.57177342031094    1.48478053593331    3.91072404963547
C         8.48349007439444    1.19256455933452    1.78751920617658
C         9.77359577836712    3.67601859216231   -0.28438780353331
C         7.56375830414272    4.38899238850511    0.33692996204573
C         9.64461720983824    9.10189166391304    3.33805026641555
C        10.45844426166317    7.75888206940050    5.15772331906850
C        10.05852444690387    7.14773602643487    0.44377224394009
C        11.78558312874760    8.81917596503055    0.45534486763969
C        14.31989797180474    7.44060830637561    2.46604394981600
C        13.26621442759928    9.20564656163847    3.71153872493068
C        11.68014712874159    1.81795428890350    6.87565943022490
C        13.02506429714961    1.60148087379710    4.89537258874318
C         9.57593833133476    4.57803725570701    6.30901831665551
C        11.30848949137378    5.27314107051245    7.82284625578058
C        13.99804568305325    6.14165462494658    5.73046051735202
C        14.54447304002844    4.06696351803024    6.81394444024323
C         9.39995375611518    0.14361754541020    4.19225213351481
H        10.07033219693546    2.12829769226260    4.62277683900431
C         8.31416611077290   -0.15089250180217    2.07314710218360
H         8.12610700541630    1.59203688791752    0.84932220803848
C         9.43826235448328    3.77462486321209   -1.62054893688347
H        10.76928201020019    3.36655166405432    0.00289673976374
C         7.23214241101655    4.48735189616385   -1.00302781815686
H         6.82970834897376    4.63173309689760    1.09175559466656
C         8.82510580668357    9.78132894384965    4.22228682278945
H         9.63846817212511    9.36329148862422    2.28955190019576
C         9.63913506803582    8.43951495473623    6.03693225248898
H        11.09639446945756    6.96319723233596    5.51761049634631
C         9.63767826333416    7.57861317521849   -0.79911553648871
H         9.56013114420234    6.31879138914385    0.92772718326053
C        11.36217821690823    9.24701653302403   -0.79072757069998
H        12.62271363487730    9.30526055681368    0.93553429656297
C        15.54795052042190    8.05327664678029    2.62068076718768
H        14.24471359820373    6.50590975632408    1.92728070008277
C        14.49861371366926    9.81636256106555    3.86450731091882
H        12.38420227719839    9.65884150172723    4.14069355805416
C        11.84987893075861    0.46710395982320    7.12365793736083
H        11.08800484634384    2.41867200239527    7.55110176405417
C        13.19210644054203    0.25368996847474    5.14655770645442
H        13.47892412196660    2.04983901986712    4.02210312169913
C         8.61260460398507    4.96571777442769    7.21963867226336
H         9.28359207013044    4.16371552193323    5.35370230081254
C        10.34042018754004    5.66202519926950    8.73203720304581
H        12.35441768802308    5.39787635011122    8.06393283866137
C        15.15510988208154    6.71301594278644    6.22253697953426
H        13.33100084136311    6.72041556667493    5.10622773944396
C        15.70303089605627    4.64302455750349    7.30494113682084
H        14.31542526226566    3.03692291348193    7.04645410998066
C         8.76924632267415   -0.67741643065694    3.27138535493566
H         9.76157335433974   -0.25813673807974    5.12671279025107
H         7.82074458062173   -0.78900960486693    1.35501985680607
C         8.16392348440059    4.18127680823656   -1.98190604725984
H        10.17232208928084    3.53795529847007   -2.37588713313563
H         6.23786636280543    4.80273852901145   -1.28286856598051
C         8.81994080554325    9.45409346413104    5.56877497382208
H         8.18772107359229   10.57235243390721    3.85573613804723
H         9.63952874289764    8.17526663202427    7.08361899712102
C        10.29070353092386    8.63204000199701   -1.41852556827685
H         8.80576704711302    7.08902949433786   -1.28258692618342
H        11.87163381347962   10.06857725923552   -1.27227384126983
C        15.63826444844762    9.24527422769485    3.32133039970718
H        16.43093212717788    7.59814797533624    2.19815215551298
H        14.56727258303766   10.74557541874624    4.41056477870518
C        12.60340125649127   -0.31597718309081    6.26393211137974
H        11.39085002143147    0.02487867301578    7.99547574862994
H        13.77814231473069   -0.34900469611437    4.46928242168460
C         8.99543938186647    5.50881968046433    8.43549096951204
H         7.56732364613438    4.84781083155543    6.97674162124339
H        10.64007672828768    6.08469933334270    9.67963761420650
C        16.01038548888636    5.96220849203703    7.01292763934092
H        15.38848390316097    7.73999311121490    5.98550170685692
H        16.36841869646257    4.05660869741105    7.92114234133691
H         8.63328902964606   -1.72649604093354    3.48606200417634
H         7.89699708527901    4.26093610335990   -3.02475942778403
H         8.17654059623758    9.98800684516307    6.25144557404851
H         9.96689360440942    8.97274671510401   -2.39023608738619
H        16.59568396531546    9.72787075977453    3.44621505779140
H        12.72949302189085   -1.36915310989934    6.46390225094680
H         8.24714693855140    5.81438950097966    9.15092120361568
H        16.91663026037642    6.40336040643406    7.39926024123031

