115
CSD_code = KIDGOV | q = 0 | S = 0 | Stoichiometry = C50H58N6Zr | MND = 6
Zr       -7.03808370318118   -5.68122174698044   -2.22294283175551
N        -5.13305633723802   -5.56218013640602   -3.46845123024085
N        -5.25247610483020   -7.01056007711549   -1.74508956812695
N        -7.75875845282658   -6.74130208863522   -4.09818186212778
N        -8.37671831742755   -4.63065112141180   -3.69159232732519
N        -8.56063045365409   -6.42686513752814   -1.06037563751206
N        -6.53948582538506   -4.19271201884317   -0.86910403111352
C        -4.53181267916471   -6.46624130007972   -2.71672487476174
C        -3.09640205939311   -6.82442209006929   -2.95990739728917
C        -2.08996460777856   -6.10042394399078   -2.32764361183459
H        -2.35370679200405   -5.30832191120697   -1.64124813778049
C        -0.75927341286256   -6.38248707606318   -2.57676970713902
H         0.01065420813086   -5.81165044698557   -2.07910290735790
C        -0.41530497345105   -7.38682382076811   -3.46528521986646
H         0.62393851856744   -7.60453233594172   -3.66272790084226
C        -1.40932682818656   -8.11110138282317   -4.10074186653332
H        -1.14708944915035   -8.89633702944582   -4.79527871701684
C        -2.74181292141974   -7.83315272018734   -3.85081549919156
H        -3.51413932758354   -8.40119631655657   -4.34998458155641
C        -4.44634385007916   -5.06038719176167   -4.65087329045475
H        -3.97714576738110   -5.89336261911143   -5.20460985876964
C        -5.48130722135492   -4.40401143928187   -5.56953116575043
H        -6.20439516899602   -5.15286057721958   -5.88688968159885
H        -4.99220805684700   -3.98051421762424   -6.44566730507009
H        -6.00466481350319   -3.61401371363067   -5.03280667656530
C        -3.36040905005228   -4.06538815983227   -4.30363899161521
C        -3.63930677811788   -3.03024558012722   -3.42119683032041
H        -4.63425919161688   -2.96286477780402   -3.00687798825072
C        -2.65619659664306   -2.12156592860678   -3.07544057552427
H        -2.87802173246483   -1.32326196907157   -2.38147532764784
C        -1.38470735226143   -2.23260960205582   -3.61386411535586
H        -0.61546785554363   -1.52428244736153   -3.34212086138117
C        -1.10316692758146   -3.25613628616154   -4.50187479118598
H        -0.11360462992486   -3.34842488619465   -4.92582256375994
C        -2.08620881497832   -4.16798963379644   -4.84448694796667
H        -1.85747293524315   -4.97230360004275   -5.53034655639890
C        -4.59353626811533   -7.94356594118412   -0.83244642302023
H        -3.60727779676655   -8.23014703425155   -1.23846283166505
C        -4.34527783982771   -7.27669543746810    0.52566912107154
H        -3.56839687276905   -6.52236081200812    0.41948335217364
H        -4.01736937452432   -8.01291666608743    1.25683124782700
H        -5.25070686876163   -6.78488633843621    0.87635856892184
C        -5.40688513186326   -9.21998678762045   -0.74345973518310
C        -5.27691754014945  -10.15591978909416   -1.76565341884490
H        -4.58789065230011   -9.95989070826499   -2.57548043637743
C        -5.99038577748889  -11.33953818626517   -1.74760953660951
H        -5.87697411819653  -12.05024234425938   -2.55312061886658
C        -6.83696138955477  -11.61997841004617   -0.68929960697232
H        -7.38924429907917  -12.54776095812359   -0.66624779569732
C        -6.96233164894751  -10.70542545501509    0.34115375463172
H        -7.60989783825107  -10.92304598318862    1.17914376733797
C        -6.25874850407949   -9.51266735413814    0.31332069677079
H        -6.36380658635644   -8.82283567755523    1.13467650208198
C        -8.50185650432056   -5.71120671969429   -4.45033980981874
C        -9.42769367755362   -5.77341561049500   -5.62656289624487
C        -9.12599212120090   -5.11644286037815   -6.81663628239116
H        -8.21891088270104   -4.53303771103213   -6.88772896269692
C        -9.98232506995500   -5.20331193157119   -7.90028119930416
H        -9.73780241454081   -4.68957127027395   -8.81875666756782
C       -11.14845719931121   -5.94457112374111   -7.80937809771531
H       -11.81461608695309   -6.01235543674510   -8.65685843317693
C       -11.45726185884745   -6.59760253953686   -6.62787769712461
H       -12.36537093322269   -7.17745893286211   -6.55082176504619
C       -10.60374021406042   -6.51341649646853   -5.54218993385191
H       -10.84237182368043   -7.02919646609337   -4.62267003181396
C        -7.80001799758189   -7.98428631116553   -4.84191790450261
H        -8.18577159766421   -7.83406143304522   -5.86580385645917
C        -6.37510436922678   -8.54386965957887   -4.93496593589767
H        -5.75208284461267   -7.87377258193034   -5.52496019307682
H        -6.38344162784286   -9.52841181481729   -5.40004244767189
H        -5.96787065800279   -8.61998921023797   -3.92788586311923
C        -8.68464491228459   -8.98566981271319   -4.12943193742851
C        -8.57106347592958   -9.13981022052045   -2.75221986474636
H        -7.85710565887925   -8.52539560060554   -2.20419378503943
C        -9.38913921345839  -10.03864411530253   -2.08989465641803
H        -9.30697741380241  -10.14765012646606   -1.01883789066576
C       -10.30986923733813  -10.79988933631472   -2.79157300241864
H       -10.94550067096518  -11.50105523926018   -2.27017988074260
C       -10.41716092432920  -10.65606737308977   -4.16385150203094
H       -11.13416653161226  -11.24575714865169   -4.71707020784664
C        -9.60938240094889   -9.74955175454513   -4.82863650237355
H        -9.70290815400236   -9.62906055801096   -5.89964521735612
C        -9.15626119376135   -3.43880808608465   -3.97930060891450
H        -9.77201083582682   -3.57446413100274   -4.88334977917476
C       -10.10403511432803   -3.12318189413150   -2.81023707344843
H       -10.85389095293448   -3.90512376067597   -2.71413074833151
H       -10.60526763223294   -2.17260928424462   -2.98424084655771
H        -9.53118883217980   -3.06541911128953   -1.88722092899242
C        -8.23845634255536   -2.25554816824719   -4.19722621745073
C        -8.42521049436591   -1.39526516477187   -5.27030941315142
H        -9.22015505334740   -1.58675524577011   -5.97839156991233
C        -7.60218228721944   -0.29435535303352   -5.43982418915176
H        -7.75409998273479    0.36705291959902   -6.28063740748546
C        -6.59124319617088   -0.03970136241868   -4.53022903847978
H        -5.95402182876562    0.82331000312995   -4.65634119242848
C        -6.39788685481437   -0.89782882309853   -3.45943847376336
H        -5.61002281550594   -0.69311703887317   -2.74931129473857
C        -7.20873565788043   -2.00812680839586   -3.29453488956194
H        -7.05443740672666   -2.71221499362079   -2.47631519045584
C        -8.40764193570862   -6.80137550615401    0.32659444210581
H        -8.67546757287210   -7.86394064420177    0.49479830354447
H        -9.06637528114109   -6.20435739550989    0.98895990172401
H        -7.37223431689652   -6.64274797642486    0.63822439173982
C        -9.95719169773800   -6.51092104308959   -1.41672154780720
H       -10.09761441963757   -6.28138847398257   -2.47477312104671
H       -10.57548315702784   -5.80626792376912   -0.82214587921204
H       -10.36874624659091   -7.52223570841159   -1.22962454512807
C        -7.47886297587764   -3.62523778024052    0.07751351897767
H        -7.42048384318115   -2.51718180092677    0.09501882193384
H        -7.27253756390260   -3.96198647543807    1.11299779244964
H        -8.49916739787214   -3.91929037279800   -0.18068500210969
C        -5.19953654931312   -3.88648090796964   -0.42124064315477
H        -4.45732028564023   -4.35189119630602   -1.07306650051294
H        -5.02011327624068   -4.23717000875665    0.61569318762268
H        -5.01336575572862   -2.79247187419308   -0.41025700517270

