97
CSD_code = KIDGOU | q = 0 | S = 0 | Stoichiometry = C58H34FeN2O2 | MND = 4
Fe       11.24721359269405    0.47236281113665   12.14346533197829
C         8.31646065544459   -1.94027681535899   13.68171797388131
C         9.62767266300741   -1.69810891351183   13.14387670919956
O        10.12862059594860   -0.50610724677544   13.08570323459258
C        10.43861109865184   -2.80473772190843   12.73810161672241
C        10.03663985524915   -4.11428514576725   13.05984578798078
H        10.69121206568492   -4.93535314732209   12.80325415561074
C         8.82752656414796   -4.34273990357120   13.64155196798231
H         8.50958601808419   -5.34853007099592   13.87259038363050
C         7.94169594125378   -3.27669655799573   13.91888644910371
C         6.65129847454394   -3.57703387839213   14.44209660061478
H         6.41049654169934   -4.61430175631086   14.62647683391068
C         5.74909014648719   -2.60364079371621   14.68930231231792
H         4.76772138626016   -2.84023005783784   15.07546691268167
C         6.06344621125299   -1.23607417455568   14.44680924205159
C         5.10911108954505   -0.25532170494597   14.67715107669567
H         4.13046950780208   -0.55118549923940   15.03086854063458
C         5.37241108268520    1.09758481282602   14.46375275945454
C         4.40872689113723    2.11254277894220   14.67407672344087
H         3.42171715128914    1.82650959633995   15.00986877284561
C         4.71991622787617    3.42146728321777   14.45477981683265
H         3.97915935085916    4.19257421515126   14.60969030105962
C         6.01285978354682    3.78704242441278   14.03070790580266
H         6.23993108071206    4.83072749469359   13.86959361160113
C         6.96544409788552    2.83559114539853   13.82006032703276
H         7.95992432338348    3.11249280594950   13.50039981444013
C         6.67250440172333    1.46366545943403   14.01329274173183
C         7.62231847904779    0.46913988894276   13.76305434127104
H         8.58514517372401    0.79873492804355   13.40508492792679
C         7.36550656796700   -0.88267316716639   13.95889626835502
C        11.65027931292841   -2.59943453863102   12.02317768996433
H        12.31765789102952   -3.46311571507920   11.94155428698460
N        11.95691983147813   -1.49207476398335   11.42684556413529
C        15.57462934784067   -1.02200229218296   10.70880148967897
C        14.37516968826489   -1.25509200349177   11.42252623619556
C        13.17130077963009   -1.35067950983454   10.74458234176651
C        13.13951249098847   -1.22886066348681    9.33936628676181
H        12.18269767298833   -1.30112749720464    8.84513417885523
C        14.28966882633768   -1.02876356120054    8.63518643272345
H        14.26307622327349   -0.94175982538624    7.55859835860530
C        15.53334962874973   -0.91888764295692    9.29338070116384
C        16.73384888675327   -0.69518138254564    8.58967858082806
H        16.69463930124742   -0.62154124610847    7.51211798160562
C        17.92275554767563   -0.57025431866441    9.25272550207430
H        18.83809392361749   -0.39800163797860    8.70584959380665
C        17.96239735098202   -0.66210239398816   10.65243209320128
H        18.90804746429475   -0.55735076323534   11.16413707130049
C        16.81724184991921   -0.88215290047445   11.36497605926350
H        16.84810387717647   -0.95584102950439   12.44271422996127
C        11.75218306945129    4.26713865846041   10.72935259360579
C        12.24358076391027    3.00621005904361   11.21214734497168
O        11.49533396328195    1.94821823804234   11.23554277624318
C        13.61586597652869    2.88565071172373   11.59647234809988
C        14.51720546256665    3.91795991025550   11.27844836773146
H        15.56396088622399    3.78322952429111   11.51203942744269
C        14.06971469916095    5.08032977818917   10.72846604471577
H        14.75780544807258    5.87957688372565   10.49649009340373
C        12.69196527463133    5.28893781235283   10.49239498246935
C        12.26232460546042    6.55914482715614   10.01162540072553
H        13.01734210463313    7.30873465169814    9.82210254715959
C        10.95493370563739    6.82867273251683    9.80969553091330
H        10.63564453880924    7.79843970398246    9.45503400980511
C         9.95702225856688    5.84463601360944   10.06288058147623
C         8.61634704991727    6.15660713365817    9.88752861884566
H         8.34961284453032    7.15452417951634    9.56607633935715
C         7.60401270199507    5.22493095798143   10.11699111516086
C         6.23008691752376    5.52636819525946    9.96066611554203
H         5.95174303820710    6.52534952651803    9.65506713079729
C         5.28010327335380    4.57677277841397   10.19332055564417
H         4.23201448453112    4.81308732203794   10.07919916609883
C         5.65191861304719    3.27371468380259   10.57891621924835
H         4.88308251833160    2.53480879571267   10.75120593451590
C         6.96579363901453    2.94905204538857   10.73849755353389
H         7.25527917187300    1.94903933761372   11.02849627470385
C         7.97998482480375    3.91473805561013   10.52849594908848
C         9.33083888348248    3.61363968276899   10.72470177077228
H         9.55984021425512    2.61341433315875   11.05887116719634
C        10.34617380082103    4.53745957826533   10.50770914368393
C        14.07945365132793    1.73658841458543   12.29544717419726
H        15.16507463600112    1.61541567136970   12.36623474847463
N        13.29638340417318    0.89924249854987   12.89551435875380
C        14.76940555099245   -2.43727011334076   13.61949946152030
C        14.35150765871579   -1.29064978640486   12.90302737242261
C        13.80556766211268   -0.21131972470791   13.57751423581019
C        13.67703676779126   -0.24729117589851   14.98213421982371
H        13.23957938263449    0.60830267691499   15.47355558389134
C        14.09726743639100   -1.33455328236460   15.68898124740334
H        14.00185187992468   -1.35697883898125   16.76495647645003
C        14.65132412895682   -2.45540639272747   15.03421665028625
C        15.07664662017738   -3.59834424389178   15.74065567166319
H        14.98642550763381   -3.60282175024245   16.81766150849408
C        15.58948236647243   -4.68026185252117   15.08095555711295
H        15.91256991292221   -5.55254384360434   15.62988840712431
C        15.69752683388448   -4.66646367359368   13.68196363915800
H        16.10090782616313   -5.52964611102226   13.17275696674552
C        15.29715696892609   -3.57291169627171   12.96680599990365
H        15.38309015741008   -3.56148828978248   11.88958749755622

