66
CSD_code = KIDJIQ | q = -1 | S = 0 | Stoichiometry = C24H35OS5W(1-) | MND = 6
W        16.17537979945191   11.70290959474776    2.07069074695217
S        16.88200626782651   13.80668836068361    3.06998349511222
S        15.00593721379828   11.53815983352983    4.22041685633248
S        18.47722000762766   11.09881183694264    2.02003386165207
S        16.48477984814942   12.37231319717486   -0.25298348393540
S        15.80631637137737    9.34235897411367    1.85697523500310
O        13.12757065937058   12.32502536825773    1.73723156564027
C        10.91212997891502   13.70532740913120   -3.83778025657852
H        11.70653394528527   14.23342990560077   -4.36115752738937
H         9.95275539921812   14.04694564048864   -4.22418319619935
H        11.01029943791581   12.64392745576379   -4.05159162123128
C         9.89280678558691   13.22886846753206   -1.58414647813642
H         9.98960738547600   13.39606167589313   -0.51407910552183
H         9.95032050830842   12.15864979721642   -1.76594301579337
H         8.91486201070597   13.58285156872549   -1.90831168579456
C        15.33106002626743   10.23683406981968   -2.74607611322602
H        15.70510275153366    9.21634653657265   -2.80079044949506
H        16.17805015501252   10.91846241624147   -2.74637641325930
H        14.72123684927425   10.43589156107058   -3.62700445751705
C        14.53619708886137   15.82009713867974    1.17614063963380
H        14.21987864637313   15.03149375748197    1.85586862099888
H        13.65661646218794   16.37436979609067    0.85370100928264
H        15.19496945370947   16.49536913144361    1.71772455987777
C        13.85916918366069   13.45241312441453    5.83593330092596
H        13.33793596220399   12.52888930096078    6.07082642845520
H        13.13274532843279   14.19309673521453    5.49959200185429
H        14.33519781334032   13.83086147698648    6.74177313362884
C        13.37042765161711    9.41475198833971   -1.39527920392338
H        13.78629740993766    8.41995108203948   -1.25012725153064
H        12.77704939666100    9.40340569466673   -2.30853355976735
H        12.72362573005515    9.63927543248833   -0.55058928484282
C        15.63834599890367   15.56942299740288    4.78320567181973
H        16.42897967321980   16.14742396178924    4.31318668058151
H        15.77347481787561   15.59523193353804    5.86512975798067
H        14.67740236058077   16.02952076151442    4.55049918725761
C        15.71595966176975   16.28734280328706   -1.00541531371080
H        16.26447582774587   15.83543172671097   -1.82891040785451
H        16.36270848409082   17.01085779453292   -0.51289633028076
H        14.85373190064140   16.81344895587114   -1.41209574844052
C        14.87768580169284   13.19130433630415    4.76501641143690
C        19.88301235663996    8.76943095116585    1.68547403737902
H        20.63711348343032    9.54997737992343    1.74492389090673
H        19.99576430853414    8.23979773920925    0.73830408195231
H        20.04881114209994    8.05529857049200    2.49407183727978
C        17.42461173814145    7.14458387785706    1.56257726022734
H        16.40922089838612    6.75734426111030    1.57159645323584
H        17.99108486634326    6.67396327628897    2.36773801057464
H        17.89675264451939    6.87630248539437    0.61599261797285
C        11.00678333868034   13.96357894897712   -2.33253084063585
H        10.87841385782946   15.03963537945156   -2.16381895989990
C        14.86003278075530   12.83753571675114   -0.80268764560149
C        13.18399985782016   14.49879983666746   -1.19453851536290
H        12.84111138635356   15.52110155820906   -1.11094879907898
C        12.36114496963765   13.56273563731127   -1.79685656853058
C        17.39250054801346    8.63569865224825    1.73331638699168
C        14.50617887767946   10.43208281366065   -1.47135562156693
H        15.16266779887408   10.24839296523857   -0.60899937609400
C        15.27994904404481   15.20978697782656   -0.01207878149374
H        16.18056835172160   14.72202314103738    0.37816471435048
C        15.68073369782797   14.15856102298401    4.27235599436240
C        12.80234605422659   12.24987797951382   -1.87782533313296
H        12.16456642150554   11.50732280186177   -2.33107278748994
C        14.03809511423949   11.86469000524358   -1.38752655163447
C        14.43267832118529   14.16242966445196   -0.69243544348398
C        18.51574289929068    9.38303197968907    1.78864816596275
C        14.26716518745557   12.12559277820856    1.79145351286407

