36
CSD_code = KIDJAJ | q = 0 | S = 0 | Stoichiometry = C17H10ClN4O3Re | MND = 6
Re        2.39869805459415   14.19179525784207    3.30095957785348
Cl        3.24032567361032   16.40603484801896    3.42307401576281
O         1.27696211097580   11.35390955382599    2.80157268556562
O         0.53404281561559   14.86964035679507    5.67214332268672
O         4.70796011521169   13.38324938364771    5.18806382571184
N         3.56622829371248   14.10257027264096    1.50454200114324
N         1.16941868832522   15.16989381477370    1.84494644987079
N         0.21131191875459   17.20998472588544    0.26696626155327
N         3.62624517791226   17.45003139525021   -0.61636269872940
C         3.07792817306721   14.82540893105228    0.48382487610211
C         3.62133105671047   14.74282841916328   -0.79799879917323
H         3.14331297873268   15.24927853790140   -1.61970570553373
C         4.75938439575224   13.98839832568054   -0.99759020622335
H         5.20397421121154   13.91658468903997   -1.97822254346275
C         5.31539442522565   13.32214887661313    0.08683914430034
H         6.21755625434491   12.74118437445568   -0.01623938783270
C         4.67072098535440   13.38748016102420    1.30694573234728
H         5.04602327941845   12.83880375703371    2.16117547340930
C         1.88210617673203   15.60882512344268    0.78975476275243
C         1.44496526661744   16.75041643232613    0.08456257661100
C        -0.54505219656785   16.65198727450634    1.18994353045040
H        -1.55721715758304   17.01859712196076    1.27664493907758
C        -0.03277381508321   15.69515943478647    2.05573848931748
H        -0.58693425358030   15.34700129512310    2.91600108139703
C         2.31000891582544   17.58446912483255   -0.76052936488025
C         1.74371240211550   18.53662118259076   -1.60889879727530
H         0.67120152248274   18.60899483139816   -1.68553750327513
C         2.58815912964791   19.36823591215063   -2.32364195716199
H         2.18362673129564   20.11486190474016   -2.99143842599577
C         3.95813175882558   19.23143793538338   -2.16284050573556
H         4.65056894937056   19.86442817231573   -2.69500311142324
C         4.42071315127816   18.25275381039635   -1.29207578877974
H         5.47931674107105   18.10191144081436   -1.12571048701989
C         1.69572038830847   12.40407989657266    3.00891983716392
C         1.22361365446530   14.55774050527192    4.81453682446873
C         3.81451402626407   13.62035292074351    4.51553987494833

