37
CSD_code = KIDLUG | q = 0 | S = 0 | Stoichiometry = C12H17MoNO6 | MND = 6
Mo        7.09666156684361    5.07042325818503    2.58208908425981
N         4.95714296608380    5.61699032928794    2.82072836268619
O         6.53586408364884    3.82050267790152    3.87721933977671
O         6.71740390583715    6.06383460548266    1.09985314326283
O         5.78100642380502    3.30238703774774    1.08153934252706
O         8.22912139102120    4.11130096096376    1.86132801247939
O         7.62097046652312    6.24037164867499    3.62457537411046
O         5.60860281572456    2.40637184944323    8.32591747433342
C         4.64088659639151    4.71002179040763    5.01043049454562
C         5.79545021882453    3.88028445466515    4.94941433424977
C         6.12144595477709    3.08353136915791    6.05787669516522
H         7.00863993369803    2.47453678384049    5.97175057575142
C         5.35332021671754    3.11542777773977    7.20939380292591
C         4.20575235484544    3.93304443155478    7.26059185083524
H         3.62117566825629    3.93306180462881    8.16574615863259
C         3.86520194969998    4.70279578467185    6.18469923134706
H         2.98762572016917    5.33129323213074    6.23027191238985
C         4.26650875057854    5.51428224509907    3.89806529165932
H         3.31815758648058    6.05786387325772    3.98520020101400
C         4.49606085283776    6.43498113960125    1.73349438354583
H         3.76423344896718    7.18798911079619    2.05351038277097
H         4.04610130108531    5.77658792519997    0.97669904861636
C         5.76386949396820    7.06749814620400    1.11917887539745
H         6.11754737325978    7.87880663680565    1.78896648112020
C         5.50281858755542    7.61777429417077   -0.28398970763046
H         6.41778679407228    8.05582925551456   -0.67335489841832
H         4.72422863060894    8.37578337531632   -0.25937497848850
H         5.20086264787670    6.80547027671293   -0.94198478089077
C         6.76053417958323    1.59224539586411    8.36988169565772
H         6.71459160477233    0.79622448566929    7.62130084615462
H         6.77083709003400    1.15283106228631    9.36584348869075
H         7.66941819853586    2.18137560071214    8.22116699516822
C         5.67354043800741    1.98758637497709    1.60134851782158
H         6.43546040962639    1.79713478626389    2.36397346363389
H         5.77480489721191    1.25327910831317    0.79438470637350
H         4.68239495814738    1.89164000942652    2.04688641918803
H         6.70827052392528    3.42553710132481    0.80907837933530

