66
CSD_code = KIDNEQ | q = -1 | S = 0 | Stoichiometry = C24H35OS4SeW(1-) | MND = 6
W         9.29432957115243    3.15328416745995    2.12780551643005
Se        8.84702945698606    3.85163953749392   -0.21585004604041
S         9.64594195581017    0.80243268346280    1.86021426633216
C        11.19256999306323    3.58033693638538    1.77531954656853
O        12.33185485182598    3.77908192629075    1.66911139799642
S         6.99848759800322    2.55291038190302    2.23048608792902
C         8.05155749968952    0.09974115808892    1.78959213605172
S        10.62120767847174    2.94660365986699    4.17497889934011
C         6.93588888837589    0.84428956943847    1.93019733671997
S         8.66652596249270    5.21638245822598    3.22594185690503
C         8.00936032994222   -1.38322732647560    1.56299349612482
H         7.51250422251920   -1.61267633658324    0.61866807689189
H         7.46177445557188   -1.88305368689703    2.36377610043984
H         9.02342192936341   -1.77324955074391    1.53044704226129
C         5.56132663490849    0.24247071438014    1.87318157733870
H         5.42850639370171   -0.49496745308683    2.66684061198520
H         5.40168670003249   -0.25739459945703    0.91701627971745
H         4.81586994248802    1.02477127572520    1.99109431068249
C        10.81360074609905    4.59860790676337    4.72728126548038
C         9.97423762570737    5.57056427379809    4.32110201051647
C        11.94294733158930    4.79277572474145    5.69545658820103
H        12.11765700791542    5.84613879350076    5.89790795839522
H        12.84960037634979    4.35422143747808    5.28064123031798
H        11.72382742083473    4.28013342429001    6.63282687381640
C        10.03504621409881    6.98717051213814    4.82163826577950
H         9.99596342410472    7.01988674414159    5.91045597839024
H         9.18798084406272    7.53894265601518    4.42350218126242
H        10.95338092530865    7.47297116431024    4.49112548563737
C        10.61193723465409    4.39004386398360   -0.85666573397060
C        11.46204591998831    3.42204590199108   -1.40784483615676
C        12.70456499529310    3.81748061187501   -1.87400856248092
H        13.36038286511394    3.07767966317264   -2.30546444538768
C        13.13368436169620    5.13325866826635   -1.78955379253128
C        12.28787006230627    6.06232846141353   -1.21165799676271
H        12.62265433580570    7.08641626380104   -1.11616924506860
C        11.02776639532985    5.71764718274929   -0.74142215717816
C        11.03705206517036    1.97536007108300   -1.49296313881918
H        10.35969254662118    1.77696062545768   -0.65027393966711
C        12.19456300770129    0.98823585704901   -1.36584970886447
H        12.81157851220512    1.24405822978521   -0.50792589909011
H        12.81399430845359    0.97300107027195   -2.26152456331593
H        11.79859500816363   -0.01346190728428   -1.21291667942194
C        10.26181457829390    1.75139881453457   -2.79248836829903
H         9.40217055141787    2.41938781549566   -2.82331087495420
H         9.90926822112443    0.72384107588011   -2.85085721290765
H        10.89641723644416    1.95674103263315   -3.65386612369006
C        14.49914723378235    5.54222954102135   -2.28924185184142
H        14.61543929734094    6.61970481515021   -2.12097897870173
C        15.59676477057588    4.81762225526615   -1.50764474861106
H        15.47134795173405    4.99065265276692   -0.44152161848542
H        16.58102298642589    5.17459687999053   -1.80841546275051
H        15.54919360667385    3.74610582835602   -1.68412605036027
C        14.63583153238224    5.27937363545937   -3.79030201643833
H        15.60476265088372    5.62211382536788   -4.15083358867496
H        13.85501160267082    5.80398579973013   -4.33706196582416
H        14.54603913381806    4.21715073976641   -4.00337114827459
C        10.17995765189805    6.77365895194132   -0.07537878916476
H         9.23758449730195    6.31027044994267    0.24093230406477
C         9.84148830218172    7.90672560039214   -1.04338339153181
H         9.33003630701479    7.50726130442026   -1.91630365907571
H        10.74096024945222    8.42258538617307   -1.37458514855182
H         9.18873571971522    8.62980922720189   -0.55834079113547
C        10.87636206870469    7.29810372649837    1.17976629286035
H        11.10423226299868    6.46789592516095    1.84542738031278
H        10.22388725157609    7.99101698903861    1.70655588371968
H        11.80545673655179    7.80952501155377    0.93441829553962

