19
CSD_code = KIDROE | q = -1 | S = 0 | Stoichiometry = C4H4I2N4O4Rh(1-) | MND = 6
I        -0.08498846770348    8.38797932343956    5.82636723705971
Rh       -2.65942998209782    8.92703999817846    5.85580369088914
N        -3.11378747605167    7.54565218574367    4.40921708186491
N        -3.13876847026989    7.30369154902680    7.01300690131072
O        -3.07820617541567    7.80177393074741    3.19766236061617
O        -3.12664498775425    7.33332836680408    8.25143001256811
C        -3.46301194243054    6.38121159830125    4.90730867582973
C        -3.47605181223017    6.25155639270179    6.30242498992245
H        -3.63521110933921    5.54839864226918    4.23749595674163
H        -3.65785420578398    5.30944067553519    6.80347100650814
I        -5.30071701999259    9.47985338025308    5.88797998384088
N        -2.48925824585063   10.36747929571037    7.30487669239809
N        -2.47306464730595   10.60945074434758    4.70212834054107
O        -2.53411068015534   10.11245933413352    8.51638759888408
C        -2.35046652429683   11.57627767247805    6.80926538316914
O        -2.50357245291399   10.58281524242996    3.46401964716062
C        -2.34161226916976   11.70584048758663    5.41417676524627
H        -2.15761053012757   12.40557652938039    7.47761154456053
H        -2.14083300111061   12.64347465093293    4.91206613088864

