87
CSD_code = KIDSIA | q = 1 | S = 0 | Stoichiometry = C41H42NP2Pd(1+) | MND = 4
Pd        7.33476472196533   10.09296152408555    6.14881076398920
P         8.15603709800341    8.18698461059361    5.03226380029225
P         8.48098342628314   11.30234260642192    4.66651888089666
N         6.07306673551152    9.12888448890294    7.51653207621011
C         6.65836401088781   11.73844885141258    7.08356684089193
C         6.56001930862197   13.07478532822650    6.65866677356361
C         6.07534815616539   14.03496928474587    7.50286822584546
C         5.67924734067810   13.71752615558505    8.81680140194948
C         5.19812690204008   14.71146329027357    9.69457553431164
C         4.82627544198159   14.39884985622006   10.97064721856874
C         4.92652307206452   13.07506129429954   11.42262244580058
C         5.38653271662692   12.08788984279587   10.59636144726529
C         5.77043182500663   12.37198185629807    9.26691170192560
C         6.25220599105609   11.39490342473225    8.35561971598660
C         6.38172150447852    9.93179453862762    8.72224242267769
C         7.82224287605428    9.69130579210361    9.19564199443911
C         6.22932372462695    7.69849984086319    7.78292358604970
C         4.68485305674236    9.34831938177824    7.09217828972705
C         8.96949859555168    8.88592014732528    3.50988635629059
C         9.72142909031148   10.16412658909275    3.87822154289887
C        10.82881650289636    9.88639624638168    4.88748842883219
C         6.73086216745744    7.30701833738745    4.32341597609123
C         5.73982224308510    8.13543839317683    3.79412373237447
C         4.57042040957097    7.59521150983716    3.29498107000111
C         4.37085072469945    6.22333354747728    3.34216396988012
C         5.33540620039094    5.40098986993284    3.90047833766183
C         6.51125519211586    5.93663615806813    4.39950219763051
C         9.32910603156678    6.88573681851313    5.52490537142452
C         9.72358512691434    5.89071857618749    4.63442006916797
C        10.62846631209601    4.92637080458738    5.03735126228118
C        11.14897321375481    4.95021532465404    6.32242876763891
C        10.76909922576753    5.94495089546565    7.20780215547595
C         9.86164778879456    6.90969107650653    6.80905118368515
C         7.41615844595438   11.82006109017042    3.29229970924104
C         7.89738116772771   12.21778858084216    2.04811800063486
C         7.00876505399934   12.57342728276909    1.04852031827200
C         5.64287466561249   12.52827565224754    1.27804845127868
C         5.15755032546191   12.12020578273361    2.51061164435031
C         6.03981942661004   11.76568433965560    3.51450513355634
C         9.45864859825000   12.71018287966960    5.24998191720594
C         9.81328462249830   13.79922027300340    4.46404678173124
C        10.57067214665831   14.81834843030987    5.01575175358683
C        10.96942916443996   14.75525444242827    6.34098273523501
C        10.60597330211441   13.67391503527993    7.12964289048021
C         9.84817552405852   12.65528411732633    6.58678214920746
H         6.86674736647630   13.35835527897400    5.65664239824113
H         5.99762379358984   15.06024138224583    7.17123964027622
H         5.13273257209332   15.72754072405829    9.33406792012319
H         4.45821816429035   15.16266854099664   11.63817628783729
H         4.63821685735476   12.83802561824940   12.43572758288261
H         5.46282182367968   11.08126292708169   10.97814649915274
H         5.68404464545971    9.64724047757017    9.52413388145772
H         8.51375333373262    9.78695820637885    8.33810426290179
H         7.94706902555353    8.71678800210680    9.66294716418117
H         8.08365063563371   10.45237669625519    9.92839745994024
H         5.63722603479736    7.40063162257164    8.65730626616514
H         7.27257321522805    7.43979498519540    7.95978057868332
H         5.87894183565589    7.12500833707324    6.92303060431565
H         4.50918563111208    8.83756123202632    6.14114477855348
H         4.47619003681380   10.41345660189385    6.97313554904244
H         3.98583156739282    8.94478465773285    7.83630479679821
H         9.64965664908380    8.14752221696261    3.07588225778941
H         8.18392850172513    9.10957328968557    2.77819532065970
H        10.14035015655677   10.63165754704882    2.97892160248236
H        10.38798454889455    9.58620602391232    5.84564027718501
H        11.43809837173555   10.77299441950211    5.05406474578950
H        11.47487245636729    9.08162486340041    4.54069810065909
H         5.89892401837383    9.21303286593147    3.77870967743527
H         3.81190960894433    8.24004679549927    2.87682473159845
H         3.45840635549024    5.79780688525623    2.95433577216307
H         5.17134685717558    4.33545114501465    3.95283594259403
H         7.25002852105290    5.28960723098816    4.85017456476139
H         9.32100454427955    5.87023191210202    3.63078225034888
H        10.93047882316665    4.15330227346804    4.34704617003581
H        11.85480137648017    4.19466209325975    6.63073437077865
H        11.18130309792484    5.96968055358424    8.20515220464169
H         9.57295489308512    7.70074134494145    7.49248248587129
H         8.96011435897570   12.24372204999608    1.85287206080021
H         7.38399858703038   12.88512297951023    0.08562373913254
H         4.95655696408667   12.80793799336544    0.49386407834193
H         4.09328004076374   12.08020244509333    2.68730852598634
H         5.66885131649439   11.44848383006822    4.49265483552704
H         9.48903080860934   13.86131138470470    3.43591122320190
H        10.84631834927074   15.66756017627801    4.40920943254883
H        11.55694716553381   15.55563810683084    6.76356640769673
H        10.90753414637338   13.63322971442746    8.16516971492097
H         9.53025376649922   11.80958039973137    7.19478880999380

