79
CSD_code = KIDWEB | q = 0 | S = 0 | Stoichiometry = C37H29BCl2IN4OPRuS2 | MND = 6
I         0.01229598964461   -2.57802386261469    5.59575158552181
Ru        2.07811806863938   -1.46720497382958    4.31317391714746
Cl       -5.33946722137872    1.85573859649402    0.07931209547035
Cl        2.71306311992576    4.16091997953646   11.50957200144415
S         1.95916620701684    0.63874575040302    5.69728039952925
S         0.37871369302236   -0.52265398821037    2.82315136954072
P         3.65830455344311   -2.22270714897140    5.83261231689159
O         2.46061004800209   -3.82786947894751    2.52367525137317
N         3.97321996997416    1.40008014085069    4.06637696639026
N         3.95179386470427    2.43540973845759    6.00859831602408
N         2.39071275638582    1.18476035685236    2.15492482632523
N         0.41739868357389    1.71937468297443    1.33927491631424
B         3.56312329636064    0.51131351443760    2.88508704906556
C         2.29288394608099   -2.94238597964814    3.23445090869233
C         3.33848035755809    1.48302824735171    5.25075085876728
C         4.99238617830366    2.95172406195296    5.26383168104045
H         5.64780611406561    3.70135311208977    5.65384713666843
C         5.00076907082844    2.30468386796600    4.07950452123234
H         5.66016585324038    2.40421135820142    3.24292025450796
C         1.09833601395423    0.81047266790070    2.09581614359709
C         2.52372389420826    2.33920586207335    1.42427959050698
H         3.47386907754875    2.82057233655550    1.32105958739877
C         1.31650261560067    2.67987086867736    0.92763908860453
H         1.02359207615577    3.49478307268811    0.29968457451248
C        -3.65660492255701    1.80595936439258    0.45127684896176
C        -2.97636957823561    0.59861668144967    0.40488123330635
H        -3.49779120202286   -0.30710100313826    0.14043685840987
C        -1.62643883202901    0.56067405956270    0.69679995457931
H        -1.09576664853449   -0.37603295947751    0.65291325157303
C        -0.95860304729446    1.72916321045856    1.04563638850450
C        -1.64922711392893    2.93666311924241    1.09148093102202
H        -1.13581061689960    3.84235702343540    1.37740050279355
C        -2.99669672927113    2.97747361892915    0.79204784436058
H        -3.53571297753638    3.91064800187501    0.83050700962167
C         3.63130942033997    2.83152397216390    7.31924784992731
C         3.25593927186075    1.89868908008047    8.27961412144971
H         3.17961587556994    0.85402498276841    8.02671969546308
C         2.97082639028959    2.30670872362421    9.56787050213790
H         2.68096828611057    1.58048877303495   10.31019030712995
C         3.06429031928175    3.64960821195427    9.90047826333219
C         3.43839974150723    4.58792543177730    8.94973358512775
H         3.50261651556887    5.63103154848876    9.21553330825194
C         3.71985859386499    4.17803907151387    7.66111681401021
H         3.99462093052565    4.90845711384993    6.91521695964948
C         3.44000462931647   -2.21783478549168    7.64752366042295
C         2.36334200414805   -1.59342799008987    8.26444508810157
H         1.59635095861395   -1.11333945495082    7.67502628370784
C         2.25895914127866   -1.59603596680813    9.64561708665313
H         1.41177878023784   -1.11774071348848   10.11363680032961
C         3.22608597145179   -2.21676233214370   10.41562917972712
H         3.14204002328209   -2.22170227779014   11.49238668051865
C         4.30267715233756   -2.84149218418374    9.80342506700241
H         5.05724724117088   -3.33100637607945   10.40180198249582
C         4.41139817406232   -2.84615058790745    8.42692945630310
H         5.24813114404551   -3.33771951622320    7.94957868336641
C         4.20416851861976   -3.94412587600663    5.57757953330934
C         5.53569781127767   -4.33183627937698    5.46728540598351
H         6.32743012546163   -3.59672137579523    5.51697439903627
C         5.85170946028813   -5.66708341355809    5.28808469178063
H         6.88750651304663   -5.96128170332453    5.19732410546556
C         4.85035542953262   -6.62145498122937    5.22553366368550
H         5.10496150451446   -7.66085256472145    5.08052399561414
C         3.52407679606514   -6.24104514447498    5.35113792598450
H         2.73893229838473   -6.98047683060058    5.30877963243610
C         3.20049821312800   -4.90909759326976    5.52679981469064
H         2.16513939117382   -4.61212693392071    5.62690881907405
C         5.19877756611177   -1.26515882820286    5.64387608428541
C         5.85059635699999   -1.34540385009679    4.41359435724166
H         5.45919171415166   -2.01068314213664    3.65226849003773
C         6.97964673067871   -0.58809452627116    4.17234862753161
H         7.48741919671352   -0.66565850472368    3.22225569992237
C         7.45720555109545    0.27426919907152    5.14808692071515
H         8.33666128108509    0.87162564551903    4.95818369683418
C         6.80499584459001    0.37017374713520    6.36516667266729
H         7.17254546576137    1.04312119074942    7.12669492199402
C         5.68055287231790   -0.39744080262533    6.61693496661691
H         5.18521198552502   -0.32749901029273    7.57553753256674
H         4.48177755630642    0.35345130872581    2.15393837410100
H         3.18213469376594   -0.60290835466401    3.34970411355956

