83
CSD_code = KIDYAX | q = 0 | S = 0 | Stoichiometry = C42H35ClOP3Rh | MND = 4
Rh        8.69005617599313    9.10460680835229    2.92960956104141
Cl        7.06635134005293    7.69273750350252    2.25582958214779
P         7.32779849056051   10.73695188615004    3.75256919325320
C         6.14124562858876   11.99903411679872    3.22209083476690
C         4.79729463352202   11.63815645027567    3.17949885485493
C         3.85438164604250   12.53920943197522    2.72411378070616
C         4.25010953617949   13.79782797819302    2.29664993239383
C         5.58960023619374   14.15022943585743    2.31733221369847
C         6.53863334886612   13.25101260670351    2.77059071610474
C         6.77082836529570   10.32600962032623    5.43968160910714
C         7.11935025798851    9.06645783122670    5.91411122739143
C         6.83130452419096    8.71173042671089    7.21927244519079
C         6.19365930318441    9.61744411219942    8.05183100027097
C         5.84448365752167   10.87385759788314    7.58029528710417
C         6.13216662219834   11.23321420325907    6.27550494759485
O         8.64673489070633   11.71084780551951    4.14296998466771
P         9.96745468498765   10.80459015791009    3.65703655392970
C        10.67258986985010   11.98454103631074    2.45960967679973
C        11.51584481452420   13.04017184972484    2.77378422754467
C        11.92244937209900   13.90851830047717    1.77496381473931
C        11.48515568311224   13.73057230559815    0.47220951999211
C        10.63092186292231   12.68437990302021    0.15909496786625
C        10.22782791405761   11.81331995565968    1.15301646876780
C        11.02805339341041   10.92867243800593    5.12350136775777
C        10.46856465079627   10.97623049928773    6.39617031916957
C        11.28238708808118   10.91116143597533    7.51231169258273
C        12.65387683525292   10.77640701882843    7.36636125231537
C        13.21308520156332   10.70769160109394    6.09992255990509
C        12.40441840805406   10.77702166174335    4.98117676986103
P        10.22199666527684    7.49328801883095    2.77334099002812
C        10.33542704884382    6.21613847693900    1.47920248211669
C         9.54128949654044    6.32131324216374    0.34539338570366
C         9.64492318606011    5.37624682919246   -0.66072636396879
C        10.54599663243019    4.33225593054440   -0.53982889497531
C        11.34877992077723    4.23188681189960    0.58691373544984
C        11.24928798831735    5.17209192681830    1.59411821802179
C        10.01095359143208    6.54802222518423    4.31222075543177
C         9.43575303935130    5.28286693154743    4.34157013507100
C         9.15410682313865    4.68007357203931    5.55548081069583
C         9.43205363228038    5.33557825207146    6.74331308390265
C         9.98507635575318    6.60730774196296    6.72000517682081
C        10.26409865553096    7.21516887362699    5.51153049631217
C        11.97749258044487    8.00391589267973    2.80753702969099
C        12.34457226227572    8.92889009879250    1.83424279467678
C        13.64688685235611    9.38176257208957    1.74867044216863
C        14.59697715860889    8.91367914136203    2.64389455646571
C        14.23836764396325    7.99194099400739    3.61300205307750
C        12.93450175599607    7.53332150074487    3.69586545451922
H         4.50715752522209   10.64899972989751    3.50838581492510
H         2.81058874634168   12.26262580420682    2.69798258438879
H         3.51270841874676   14.50240794306146    1.94094767376348
H         5.89647270792944   15.12823814234839    1.97551538633414
H         7.58609161587641   13.51667930274541    2.78582327468966
H         7.61407740619190    8.36549694831660    5.24182900239155
H         7.10339238628981    7.73191888863271    7.58333286209032
H         5.96570021793787    9.34534082302629    9.07226132083234
H         5.34782440775298   11.57636515868178    8.23402532755263
H         5.86671460245645   12.21291177557534    5.90313188831145
H        11.84821155425662   13.18207060094583    3.79232882885733
H        12.58117570880266   14.73083360090683    2.01452191383166
H        11.80817307700981   14.41225710355052   -0.30102321334345
H        10.28463658047559   12.55162618639413   -0.85542144962946
H         9.55367262813946   10.98316804606666    0.93712800560856
H         9.39674173162441   11.06729917086083    6.50427024470199
H        10.84493360785557   10.95802329765760    8.49904219410530
H        13.28694409597446   10.71990153335489    8.23965012927252
H        14.28103928392111   10.59476458675050    5.98345686796814
H        12.83272442090629   10.71614385034278    3.99061074680386
H         8.82969857963973    7.13286546744818    0.27424606255934
H         9.02018849233342    5.45295091655662   -1.53850267940733
H        10.62582415532340    3.59287527987378   -1.32360029917700
H        12.05330195980442    3.41737443432426    0.67746113154969
H        11.87447975844566    5.10068169658649    2.47427796195438
H         9.19951118650000    4.78010396651098    3.41467557658893
H         8.70768221453965    3.69648611621051    5.57389839044089
H         9.20861345910381    4.86068244634247    7.68777503195196
H        10.19019927348271    7.12971871204774    7.64376423514967
H        10.68068272246310    8.21579008579390    5.48606617991501
H        11.59084670959438    9.28510934404462    1.14227704664873
H        13.92189355301300   10.10164655590535    0.99097993349007
H        15.61578903814433    9.26826815948331    2.58544295360347
H        14.97936928472703    7.62563070999431    4.30905266928344
H        12.66376916447943    6.81358860470177    4.45552969952959

