109
CSD_code = KIFCEK | q = 0 | S = 0 | Stoichiometry = C58H44Cl3N3Pd | MND = 4
Pd        2.00139276903414   21.21698732487381    6.60014807092163
Cl        0.04596044451182   22.40305031030009    6.44719495907723
Cl        3.94916905512153   20.02309276862293    6.77468630809033
Cl       -0.49238151331774   18.32956093554618    2.58647742283244
N         3.82524278088661   23.54079214483187    6.51316677201498
N         2.78364941720932   23.43477075702330    8.39706001209809
N         1.05298993075606   19.60065051739068    5.97740792360609
C         5.28242858835936   20.67565409537848    1.83445453759823
C         5.00711763506084   21.28527588206022    0.46449559383172
C         4.44512019930430   22.54090880476176    0.28519694719820
H         4.16880838996334   23.14260947283312    1.13797357207140
C         4.24389383099463   23.04917598562520   -0.98835734573473
H         3.80518500652178   24.02950465762818   -1.10559746689904
C         4.60475077198686   22.31421877138224   -2.10206829293822
H         4.44567627562788   22.71212265367300   -3.09332881955648
C         5.18274522801052   21.06649868211937   -1.93461337759112
H         5.48021984328368   20.48647120736929   -2.79607768254932
C         5.38645756843416   20.56147581147768   -0.66498948994803
H         5.85452604224548   19.59489161743304   -0.54257224432625
C         4.38134471904454   19.47088419439842    2.11894063393954
C         4.36755587877852   18.95604503551782    3.41548735361430
H         4.98613131212413   19.39925736171805    4.18153711112072
C         3.55941985342366   17.88626384537964    3.74740692219825
H         3.56483455286434   17.51663389954517    4.76231210670719
C         2.75129249436617   17.30082140426034    2.78663123213958
H         2.12597313509485   16.45649607256581    3.03984160299929
C         2.74904890876423   17.81020973496292    1.50160719928634
H         2.11515981973553   17.36981010784423    0.74532900466744
C         3.55065374222590   18.89201924415775    1.17111009054566
H         3.51271214367548   19.28013757945532    0.16448783013727
C         6.75723141671524   20.28353063649487    1.81615778866973
C         7.68679160359055   21.24301779963006    1.41815630258585
H         7.34539077700488   22.23189647031223    1.14480754129695
C         9.03473194678056   20.94581119581104    1.36194365288785
H         9.73894597940356   21.70501304944468    1.05375990666609
C         9.48048006155800   19.67712721417157    1.69463682860347
H        10.53332777626341   19.44097689519125    1.64895826228277
C         8.56503130256176   18.71523493545233    2.07892640587080
H         8.90012684402246   17.72032276865414    2.33345193532878
C         7.21323628252598   19.01440937532712    2.13914891134753
H         6.51736198456020   18.24461790834361    2.43528054859068
C         4.97752852268336   21.64228248965969    2.97176424539354
C         5.94119952132850   22.15688120711561    3.82513200376012
H         6.98708545460462   21.96106808310671    3.64858884493300
C         5.58161564660835   22.86560611589284    4.96118983403687
H         6.34021928278755   23.19784931395719    5.65399380832086
C         4.24399532405111   23.06953711652953    5.24833285299783
C         3.25853902609590   22.63952418990496    4.35193431551184
H         2.21143887722383   22.89806680051522    4.52078905810370
C         3.63568582857763   21.93336928390227    3.22735639072056
H         2.87800136488219   21.56956241619602    2.54716684391429
C         4.25821673078225   24.59985223381306    7.26916045628997
H         4.98064252176221   25.30467606732712    6.91185040258023
C         3.58406229697567   24.54743014226474    8.44486152797917
H         3.62650262203867   25.18969804087332    9.30044271945884
C         2.92674170671219   22.82270404411697    7.20877802271032
C         1.81905825609216   22.94631134692517    9.30627525004751
C         0.84305347191575   23.77128997867502    9.83567006963876
H         0.88633046970670   24.83700306520473    9.66785951936388
C        -0.23577942389881   23.21761642731908   10.50774180431044
H        -1.01353169011947   23.87389053333848   10.86542394773608
C        -0.35464729404630   21.84429424836260   10.65406514926286
C         0.68104273313681   21.03097174992039   10.18974635139766
H         0.61570490403118   19.96091097525510   10.33005229641493
C         1.76439173688616   21.56427508549419    9.52138877453495
H         2.58827572110311   20.92406720054521    9.20085849563989
C        -1.60562973253912   21.15284823983317   11.18079053355027
C        -1.98869816862664   20.19316343207402   10.05192508358449
C        -2.06879281398879   20.70622693470709    8.75706326995217
H        -1.87541043391372   21.75317605059360    8.57747436308570
C        -2.37908442722800   19.89047012247876    7.68688891303242
H        -2.42711730792101   20.31539537627782    6.69549253204441
C        -2.61715362304279   18.54052821361019    7.88775447583670
H        -2.87195357784275   17.90211445642379    7.05404624376686
C        -2.52297442066906   18.01857637620250    9.16431280446438
H        -2.69581301405818   16.96515959975937    9.33406351034015
C        -2.20453490401234   18.83592046942259   10.23807077064698
H        -2.12161484083418   18.39734794818267   11.22107205210284
C        -1.35953461097819   20.42574105003597   12.49763987231188
C        -2.45117017566844   19.84486242219091   13.14096564427408
H        -3.43039433617166   19.91290608316466   12.68842141168955
C        -2.29931008505872   19.19266485366288   14.34931693231566
H        -3.15773868297261   18.74462378323600   14.82813500480360
C        -1.05212211567123   19.11937078108392   14.94787626278812
H        -0.93093979193727   18.61228655324409   15.89356607287166
C         0.03283171188958   19.71206487433140   14.32951083888306
H         1.00765571569793   19.67468595300818   14.79379907540271
C        -0.11883727802817   20.36245109086022   13.11516640289774
H         0.74151967452111   20.83067828971555   12.66103070283145
C        -2.71819438122324   22.15315004452368   11.48016964401155
C        -2.55335402531796   23.01047709753480   12.56675974656035
H        -1.64790254933094   22.95381720683862   13.15495108354604
C        -3.53194313784557   23.92513680760979   12.90467950734985
H        -3.38280477453603   24.58304622570501   13.74856572500466
C        -4.70232832589756   23.99418189883615   12.16689521608267
H        -5.46987940647634   24.70701553346181   12.42958419734521
C        -4.88156269892009   23.13768548317089   11.09672221733506
H        -5.79374127282931   23.17646933910967   10.51938046638946
C        -3.89855423520967   22.22233748622525   10.75563927676907
H        -4.06539709977412   21.55875887864971    9.92109697490064
C        -0.01898039229575   18.39967035696539    4.23701575377643
C         0.68798664304732   19.49857871327702    4.70443836509015
H         0.95655831928213   20.31758782444076    4.04234499249631
C         0.74488288371664   18.62623161316875    6.82953961475530
H         1.06713610359735   18.76289748023254    7.85853137461687
C         0.05711939684444   17.49253922840898    6.43317508814452
H        -0.16948848391618   16.71987353086747    7.15017730015804
C        -0.33917854644127   17.36922901329230    5.11141348381341
H        -0.88276519190856   16.50466600051118    4.76403764920562

