140
CSD_code = KIFCAG | q = 0 | S = 0 | Stoichiometry = C75H58Cl2N4Pd | MND = 4
Pd       -0.12123369143943    6.20564728511894    3.08218336125058
Cl       -1.15437339652392    4.34144277006597    2.22016221236443
Cl        0.89935509410266    8.10020724552930    3.89211521726792
N         0.40439437113571    5.16733990208908    4.74794273395757
N         1.81610224635572    4.29401505703449    6.18460975826861
N        -1.51265448445897    8.10407432872652    1.26599322585228
N        -0.08873023227498    6.85951614478608    0.22697723739505
C         1.61013171348154    5.25347396282019    5.26088259388390
H         2.33061675877458    6.00882772761366    5.00378195173788
C        -0.20704908107949    4.12059046097029    5.36386426439705
H        -1.20684785671734    3.82169216777278    5.11078943970218
C         0.65979462910979    3.57303889587011    6.26290753440144
H         0.53765608639222    2.73839930450558    6.91979590713440
C         3.02320581119026    4.16864449628415    7.00084342691038
C         2.87959809359109    5.03609280145475    8.24999404053073
C         1.94982266858758    6.06218920423859    8.33653614116033
H         1.29554454572193    6.29068669279372    7.50854222216528
C         1.84146190250849    6.81466778372048    9.49489790561654
H         1.10026491964515    7.59726262254723    9.54714424451411
C         2.67056766998676    6.56375113878538   10.57234988040631
H         2.58449093821304    7.15171914162222   11.47376738729846
C         3.61363028495826    5.55259936848289   10.48799299381261
H         4.27060003011600    5.35084698163932   11.32100512622686
C         3.71446795486308    4.79239273827721    9.33839550070437
H         4.44492311749087    3.99772370059370    9.28233519170332
C         4.20256127649004    4.62624923548473    6.14467080389827
C         5.18668623151907    5.47133241350883    6.63646162772746
H         5.13507161866895    5.83691562454853    7.64997886052803
C         6.24233325561978    5.86903684855488    5.83221351991855
H         6.99487760376607    6.53063251078285    6.23434767676748
C         6.32767263812657    5.43107527597871    4.52432284192331
H         7.14594395109561    5.74541797945736    3.89423543578192
C         5.34971497131184    4.58841666547193    4.02329467743775
H         5.41160278487401    4.24435128277356    3.00176276921130
C         4.29730329929365    4.18587862501090    4.82423462019361
H         3.54098660436958    3.52948045048082    4.41453948923381
C         3.17067681436897    2.70696767100890    7.43083541692221
C         2.36772061558204    2.22908158512646    8.46518552466631
H         1.68255537249119    2.89780439977583    8.96724109459176
C         2.44762279619534    0.91104932473771    8.87307923964613
H         1.81343504429881    0.56060520847923    9.67388843015400
C         3.33987494569721    0.04640728622530    8.26142252537581
H         3.40485610968810   -0.98292595765282    8.58081580459160
C         4.15055535444769    0.51546095075886    7.24469852794394
H         4.85688876338978   -0.14517446601668    6.76454299853842
C         4.06653460965205    1.83484167134272    6.83023776184782
H         4.71530075493708    2.17463788983596    6.03867552421992
C        -0.59330167846094    7.13727711518692    1.44426229503348
C        -1.58051303123400    8.43706587746082   -0.06511829483427
H        -2.25254935103341    9.18238140261515   -0.43789014041234
C        -0.70399133877817    7.63870069779805   -0.72001330625268
H        -0.45898663392841    7.58062983287935   -1.76064634301507
C         0.83304402409460    5.80232858955558    0.07595508340335
C         1.86372288220325    5.68128151917639    1.01494244965377
H         2.10268291824749    6.50682545981581    1.68814239459765
C         2.61847585949188    4.52543385055005    1.03918278001796
H         3.40396583991685    4.42446006429150    1.77351839780018
C         2.36266322463373    3.47739863332287    0.15495876781333
C         1.42313272244907    3.67072806361692   -0.84623499113339
H         1.24870904691546    2.90585227215555   -1.58703686171043
C         0.65226034099261    4.82143878840100   -0.88366464033574
H        -0.12765489502083    4.92530072085043   -1.62293704360014
C         3.17243596480055    2.19897804504638    0.31652020649160
C         2.72775687520747    1.10472164948566   -0.64757523103068
C         1.41161686084633    0.65417276313505   -0.56429925454531
H         0.73865833643220    1.10835717125295    0.14865446298907
C         0.96049466585403   -0.36391843663650   -1.38164913341516
H        -0.06505479229864   -0.69454196004312   -1.30766550558900
C         1.82100815922401   -0.96244495561217   -2.28770179915104
H         1.47035859623208   -1.75909440957172   -2.92712241919679
C         3.13505970217803   -0.53904823095034   -2.35882608038131
H         3.81875024026812   -1.00794309531191   -3.05175463150659
C         3.58775774007831    0.48455104159823   -1.54172113662616
H         4.62125375354058    0.79122444621914   -1.60730806395513
C         2.96057263415798    1.56769774545018    1.69096791357510
C         2.02770542502024    2.02780697387683    2.61124359729000
H         1.41201035005752    2.89052940655319    2.40018177885875
C         1.84534410711326    1.36439140578701    3.81468796061816
H         1.10353443922761    1.72932468995518    4.50952431796299
C         2.58632307422596    0.23853754307800    4.12137101286592
H         2.43955318748602   -0.26974765167154    5.06309427674644
C         3.50137301558891   -0.24142298357194    3.19953058839375
H         4.07185571529582   -1.13369641618633    3.41384100034415
C         3.67430517588926    0.40910560214774    1.99276414110345
H         4.36573688337156    0.00763178803049    1.26508140736096
C         4.61312339797298    2.63751283202829    0.07739103592031
C         5.61815005502182    2.52850714502783    1.02760319322067
H         5.41397794229085    2.07700377874073    1.98702456185730
C         6.89705605848858    2.99245173878852    0.76137699616547
H         7.66423659396208    2.89671867655052    1.51656336007269
C         7.19119712974678    3.57568691066786   -0.45667406731982
H         8.18871376786560    3.93427296123481   -0.66293220135269
C         6.19235109633132    3.70126795828016   -1.40855105875618
H         6.40771304789973    4.16135195396839   -2.36185304998499
C         4.91686626241546    3.24358593458540   -1.14033161098914
H         4.14060086386641    3.35396726910373   -1.88409961670898
C        -2.13914830307014    8.72235422570018    2.36762749849808
C        -2.52631097609391    7.94165358855562    3.46039491308403
H        -2.54078211279221    6.84825469352776    3.39339156242757
C        -2.93005336537531    8.56528817764820    4.62376657022150
H        -3.19771843673151    7.96287540001661    5.47973727469715
C        -2.97434225738858    9.95650542774347    4.72476411935336
C        -2.69842137425065   10.70855844634520    3.59329847861492
H        -2.78129038769046   11.78387387399246    3.61632894739794
C        -2.26998725361136   10.10032836474391    2.42507192654171
H        -1.99234383610170   10.70573267935553    1.57506585397774
C        -3.32035237450261   10.55520489422772    6.08194268791303
C        -3.49734134435584   12.06986945992197    6.01659307638803
C        -4.69986802459526   12.71297140990646    6.27019471095425
H        -5.58361738453419   12.14324938758064    6.51445265346143
C        -4.78439701696816   14.09569196329858    6.22758537295388
H        -5.73100573489305   14.57594138183747    6.42942319015816
C        -3.66885323325784   14.85806796550436    5.93649291297563
H        -3.73763307199083   15.93542460008701    5.90411799081033
C        -2.45837801807466   14.22730511919611    5.69992331040097
H        -1.57534780701402   14.81125190932515    5.48463844110017
C        -2.37304567435067   12.84937591050639    5.74658269745344
H        -1.42070150520344   12.36654962624371    5.57961304506044
C        -2.16935629809280   10.34671643367626    7.06698632900814
C        -2.27692595134526   10.93289018855234    8.32720154251411
H        -3.17250235831074   11.48195561859713    8.58350926305659
C        -1.25014207657243   10.83565050785623    9.24636756261177
H        -1.35528025568344   11.29691143681359   10.21798045964631
C        -0.08406457986300   10.16430871215060    8.91645351278820
H         0.72798259517547   10.10715183713819    9.62772901569773
C         0.03685644193624    9.59006569804398    7.66470739763328
H         0.94574317883933    9.08155066443577    7.37856389174425
C        -0.99722655260296    9.67686844184872    6.74611708346686
H        -0.85283410146861    9.23137780734254    5.77448144834206
C        -4.59907319993101    9.85022740738372    6.52095081190190
C        -5.68591700188699    9.86680092921963    5.64797833313958
H        -5.59728982396582   10.38352948200196    4.70242486270842
C        -6.86855753241723    9.23086153574174    5.97231008540218
H        -7.70047961145559    9.26098502624089    5.28376557592800
C        -6.98529835346925    8.55239699844327    7.17447117975093
H        -7.90819521357419    8.05342683574676    7.43067213634553
C        -5.90614174523783    8.51071024776401    8.03726828685829
H        -5.98040017751303    7.97227173708374    8.97105376491199
C        -4.72086404193207    9.15154553352603    7.71285760107286
H        -3.88766561351950    9.09168183755233    8.39637045285419

