63
CSD_code = KIFDOS | q = 0 | S = 0 | Stoichiometry = C30H24FeO6P2 | MND = 6
Fe       11.51868418139470    5.18598829903411    7.82485441574641
P        13.49758434100518    5.90781291236437    7.26548822210332
P         9.59598166371346    5.17925965401768    8.85211557934504
O        10.50293568978430    4.27837877617658    5.28366767342280
O        12.23841049941119    2.39625327388940    7.93756263620644
O        12.09344008666758    5.64041605745757    9.60737057464639
O        13.42080381940169    6.67064522586529   11.03642141984031
O        11.13521365375694    7.05759075867031    7.57289467390275
O        10.05073945025580    8.91783266884272    8.05112982297923
C        10.90885035816224    4.70246954239394    6.26608138668678
C        11.95533681658291    3.50481274038394    7.96068147435910
C        13.08251765095442    6.39806040942671    9.90659998810126
C        13.86679744122959    6.98053605899114    8.69544258529289
C        10.26553091235427    7.73890656492129    8.22222989260136
C         9.45934551031697    6.94629865556698    9.29105771961678
C         8.10713519866863    4.84945665137463    7.86744900200360
C         7.69947618016185    5.79092288086774    6.92506237730934
C         6.61271458081665    5.52856490152699    6.11178138720468
C         5.93536917993398    4.32455732467583    6.22459325450082
C         6.35141523303090    3.37688765615451    7.14580551078253
C         7.43944821369405    3.63216987724984    7.96056025568894
C         9.32460524233490    4.29836907327044   10.41138009550595
C         8.11202955889691    4.46107667732849   11.07782692668894
C         7.90377713395882    3.82768368314380   12.28820796620888
C         8.90099148975086    3.03590306799950   12.83739227432096
C        10.10740883918373    2.87602818922753   12.17596666702337
C        10.32192319509095    3.50474267376922   10.96175166294542
C        14.86292075081075    4.71234393908715    7.23443713452044
C        15.35198919080004    4.22590048074069    6.02565253879900
C        16.33927829760693    3.25776114142884    6.01873219697580
C        16.83160456965960    2.75930549244215    7.21426248052797
C        16.33060661284479    3.22402323426534    8.41997245277109
C        15.34423345840703    4.19295936254124    8.43378678944960
C        13.77844904137443    6.95909093125190    5.81732442422412
C        15.04625569593724    7.49825327902172    5.61051385231415
C        15.26942298502321    8.33303550846044    4.53211598662128
C        14.23290104025298    8.63319212641073    3.66121844396409
C        12.97204756338553    8.09817061684384    3.86763419249010
C        12.74169659489167    7.25961611853932    4.94434997220956
H        13.45367536913919    7.97222461047784    8.48071897769007
H        14.93412434400491    7.07637196087900    8.91251985155892
H         9.96025039800346    7.08802837224082   10.25499910969230
H         8.42876596761523    7.30377855947335    9.36652733271513
H         8.23438462646327    6.72685617435582    6.83308720715397
H         6.29374668816200    6.26331086285428    5.38761641636004
H         5.08599194063762    4.12237672656425    5.58936633075438
H         5.82953950156672    2.43477496470144    7.22600106430941
H         7.77343403606682    2.89376493704993    8.67681560722580
H         7.33848697232378    5.07917396317489   10.64141906454558
H         6.96481243463972    3.95323578817218   12.80698815156015
H         8.73659390857118    2.54644669781570   13.78585123890715
H        10.88424580217584    2.26402480678514   12.60916656670966
H        11.26249954787126    3.40420879243604   10.44118182856166
H        14.95857832569559    4.61547070184540    5.09638537736291
H        16.72299103645343    2.88799474282404    5.07938227352934
H        17.60242311063416    2.00326183604734    7.20637234242086
H        16.70819265716667    2.82866872529161    9.35119254375388
H        14.94544329955690    4.54928060521633    9.37418136298134
H        15.85005359516689    7.25669252414159    6.29349170952505
H        16.25103121784301    8.75385673794494    4.37105131736416
H        14.40969303129110    9.28961335740381    2.82215644829464
H        12.16579192202372    8.33814525480166    3.19081251420304
H        11.76107834543925    6.84736181187214    5.12943945294279

