55
CSD_code = KIFFOV | q = 0 | S = 0 | Stoichiometry = C17H33ClN2SiZr | MND = 8
Zr        5.63934899597709    6.74923651359070   11.91896286806283
Cl        4.68707974158929    4.84087248304970   12.91414860651646
Si        8.26533138855135    6.57122633257607   10.46048241567264
C         7.58674181858165    6.50715471656920   13.30972353613403
C         7.94879712839653    7.31732365096070   12.18896192082796
C         7.38293024284940    9.73763902537913   11.42202136199200
H         6.87519952481930   10.60951071110843   11.83096276709328
H         6.98101638499472    9.53466036787528   10.42713276536933
H         8.43771656356165    9.98825417196041   11.30780900784841
C         6.68269086774817    7.22691978854540   14.12886249869165
C         7.23169201225887    8.54740606624770   12.33020772899130
C         8.10123459064888    5.12216013168466   13.60311283274739
H         7.51480747488266    4.35523659131733   13.08165025377897
H         8.04900277916350    4.91532279351612   14.67202848291278
H         9.14049896781455    5.03352173595075   13.29178884188104
C         6.13695938180426    6.76192963235171   15.45357110888654
H         5.26391898432216    7.34571897421910   15.74593627751886
H         6.88795792962253    6.86877391507759   16.24077709691704
H         5.84208106550612    5.71162410327451   15.40652610379889
C         6.46311168112643    8.50283324050762   13.52192867851941
C         9.52246122043846    5.11129000293902   10.49395522816204
H         9.73033887102350    4.78379255073013    9.47987888013259
H         9.16746083978981    4.25093079432127   11.04998214948180
H        10.46759472743302    5.42152330760286   10.92778035337518
C         5.73779672489616    9.65942926748668   14.15936426214169
H         6.43045072815073   10.25515604475391   14.76033354585593
H         4.94314196178590    9.31254492693448   14.82005575470417
H         5.29662683764354   10.31716578447858   13.40980773743141
N         6.59393492876966    6.27405887184996   10.16443187427509
C         5.99315441823140    5.29133904363326    9.28385972234780
N         3.99570858198409    7.80571302291696   11.50022533206690
C         6.24384523024008    3.86600009049947    9.81616998069618
H         5.93337285827768    3.80622959962840   10.86329437279365
H         7.30100330283690    3.62474085447946    9.74660247395391
H         5.68127846774232    3.13443385377662    9.23960094939727
C         4.46845380269009    5.53577614676805    9.24883077898016
H         4.26340976947393    6.54729221941368    8.89307576890166
H         4.04248901428071    5.41623920570944   10.25611940618161
H         3.98824619725791    4.82527483001888    8.57684737469643
C         6.55212915961242    5.41316595685120    7.85781887013976
H         7.61778950250320    5.20335428544860    7.86059078578573
H         6.40387264193261    6.42606139409046    7.49144421776913
H         6.05606727354523    4.71507682354393    7.18785970823868
C         3.98551878535760    8.94016345297591   10.60425245375564
H         4.15721785421791    9.89680342479712   11.13792980758071
H         3.01174840419113    9.03272322020229   10.09049847488428
H         4.76679446685830    8.81413913381618    9.84454021066098
C         9.07494192342007    7.79653334101987    9.21754631749844
H         8.35954026603344    8.50036605410843    8.80690609520207
H         9.51140772444922    7.25540237917154    8.38488556698326
H         9.87078441224829    8.36529560377519    9.68515422260341
C         2.97650813593696    7.93599385552694   12.52135307178106
H         1.96691700493542    7.94547181963895   12.07285613491302
H         3.07896767583556    8.87660952968127   13.09786812824048
H         3.02950876169516    7.08688436162782   13.21548483421656

