38
CSD_code = KIFFEK | q = 0 | S = 0 | Stoichiometry = C19H12FeO5S | MND = 7
Fe        2.66426954019787   11.03492194635376   16.06218923579478
S         4.13868870268089   10.17924994774943   13.73523808524257
O         0.59411854977379    9.97254268077856   17.80238183337119
O         2.79275179921712   13.38113665412867   17.77017960613663
O         4.87103313809048    9.54197822728589   17.28002542137357
O         5.20678467047453    9.43720991228489   14.34512868275912
O         4.13641162377510   10.26191376819669   12.29923599302191
C         1.37604794446179   10.39335923614583   17.08171818962393
C         2.72084141669667   12.46115919794847   17.09715236665574
C         4.03973877930343   10.10475951451292   16.75250387965399
C         2.50582270074774    9.76578940537011   14.41667703749195
C         1.71994180936892   10.91654211753031   14.09387944138689
C         2.51264328496208   12.10193686373010   14.16383383838903
C         3.85777555693601   11.79204960050710   14.51878114406053
C         0.33501752005411   10.86609999979273   13.60128369630869
C        -0.01132602415578   11.55389215798700   12.44005093551116
C        -1.29940900621478   11.47460364861729   11.94409894689259
C        -2.25396569163638   10.71232800993667   12.59665441131532
C        -1.91304267529422   10.01726141129067   13.74546565372702
C        -0.62567307048482   10.08922287384724   14.24327676915788
C         2.00900959959053   13.45040801146262   13.86046366245221
C         0.81966815742281   13.91508454967105   14.41695883502423
C         0.35463461173024   15.17840265771437   14.10728945919733
C         1.06909219723201   15.99017438121479   13.24028603168822
C         2.25434551470086   15.53554374069721   12.68714145729393
C         2.72755047855756   14.27335855468541   12.99713528361501
H         2.10690413998794    8.77308511639503   14.25538956196031
H         4.62718358922641   12.55139546023711   14.48678120422798
H         0.73641844356900   12.13212557562135   11.91880097956424
H        -1.55764356150901   12.00939764880111   11.04244536519360
H        -3.25990146117530   10.65641109241550   12.20872442313486
H        -2.65199211488705    9.41735352232463   14.25526528704345
H        -0.35872242760580    9.55688148567836   15.14477254628756
H         0.27620488625747   13.28261974919182   15.10534769804861
H        -0.56602524529595   15.53313712485069   14.54549053493936
H         0.70360150240917   16.97692275390910   12.99910359731772
H         2.81352077247197   16.16602727202526   12.01216538187010
H         3.64248034836305   13.90801412911038   12.55388352326603

