53
CSD_code = KIFFAH | q = 0 | S = 0 | Stoichiometry = C18H24BIrN6O3 | MND = 6
Ir        5.72153547173892   14.61974697819234   10.17579035365284
O         6.42181152094676   13.37448531182694    8.69002068191658
O         8.03513404258296   11.85011508992126    9.01520683855693
O         3.74901041103804   12.45468403508423   10.80037853862220
N         4.24480018103853   15.85336825872977    9.10683795884294
N         4.18101184976483   17.16789801717985    9.36463683744128
N         5.31446605825331   15.80778658007165   11.84911126095500
N         5.07954880827044   17.12220796889116   11.69046596311581
N         7.03314719573255   16.15879101539246    9.58388709250183
N         6.60594205456492   17.43306971760853    9.76230226290999
C         3.34150431839639   15.55937554011825    8.17990922634110
C         2.66229047082482   16.73117667084845    7.83259525259761
H         1.87426121226656   16.83286182303053    7.11469333447204
C         3.22507769482231   17.73239487544793    8.60375328205882
C         3.15728975404471   14.18237380316298    7.65621680395650
H         4.09556347101736   13.63491368185920    7.71777916300790
H         2.82597721855114   14.21677334918116    6.62122012367140
H         2.40492553943107   13.64997457833770    8.23847499687935
C         2.88928070919129   19.17926734940895    8.64127086726090
H         2.61860580015606   19.48565709583802    9.65004284076939
H         2.05258539439912   19.37501739218780    7.97646144788965
H         3.73872798576120   19.78088085532180    8.32203938615716
C         5.20056890205417   15.51763961670592   13.14794913027226
C         4.87935511203994   16.68525410975540   13.83751145504502
H         4.71997676082551   16.78842884053305   14.89106228426020
C         4.81175050774856   17.68283537572122   12.88013422831396
C         5.41179290194978   14.16355937356627   13.71978781743579
H         4.79841398158641   13.42630017611724   13.20761701471884
H         5.15366463463258   14.16923732671044   14.77515921301730
H         6.45313184278575   13.86796862170504   13.61248955852315
C         4.50408918336590   19.12311381167172   13.07117371476099
H         5.34767063245213   19.74062325280250   12.76860712426683
H         4.28946822658314   19.31113552834147   14.11941439619367
H         3.64147636865871   19.41441682496043   12.47550375970887
C         8.21887584034459   16.21535334500867    8.97059150626894
C         8.56235203100052   17.55340213421682    8.76812796305928
H         9.45447285673867   17.92185263804934    8.30456267692731
C         7.51731213805982   18.29507774442273    9.27874196103237
C         9.04930222358311   15.06607815245367    8.52743229459091
H         9.43417581287202   14.49301194328516    9.36805761098438
H         9.89407117892699   15.44256028603224    7.95503362676969
H         8.47487195261365   14.39086789695149    7.89869929992471
C         7.37961882336301   19.77426889654910    9.31188928906175
H         6.51893944710354   20.09668584229470    8.72879051216823
H         8.27475143182260   20.22554128115673    8.89231821886166
H         7.25121388003744   20.12952193257782   10.33256312998947
C         7.30764699328812   12.73207264881477    9.40168230651511
C         7.23217011866486   13.32450965142139   10.81012096013984
H         8.16259245386089   13.81161669317116   11.09626876438980
H         7.00429890296865   12.54646062999934   11.53788002828325
C         4.50143479586044   13.29372844514355   10.61650555127879
B         5.21351666574963   17.78763942930435   10.31117605169804
H         5.07142623566610   18.95221756291500   10.39475403796168

