70
CSD_code = KIFPUN | q = 1 | S = 0 | Stoichiometry = C25H39ClIrN4(1+) | MND = 8
Ir       11.75513496214701    1.43696113468239   12.75596217288654
Cl       13.43832074687611    2.26411830597448   11.29057485295475
C        10.92385208027394    0.66187017706905   14.63249130866940
C        11.99713114856387   -0.23613769457258   14.27420997249245
C         8.73553730711757    3.77040987608624   10.95242634046523
H         7.79989587411636    3.79757729623593   10.43418882905953
C        15.36369435481485   -1.10045761617449    9.60242458696261
H        15.77644563164594   -0.62871351555059   10.49555780094652
H        15.39944005211674   -2.18286996757675    9.74614804261902
C         9.55346428186012    4.77015019913244   11.35380823053448
H         9.45115176046981    5.83007876766317   11.24799607335914
N        10.62509193436754    4.19676929045874   11.98056597787352
C         8.79671246491059    1.27770494671316   11.16496132362635
H         7.96956592971710    1.31629592218490   10.45053738623414
H         8.42486154134097    0.89757597086860   12.12941573747261
C        12.88984549428159    1.86558324462389   14.67156076405279
C         9.54356997461020    0.23295302608661   15.01441844782352
H         9.19959473660867   -0.59291807688212   14.39522941260693
H         9.54132194779925   -0.10610090874329   16.05164060253708
H         8.83640129881037    1.05559888206285   14.93310677010977
C        11.51196287142324    1.94000517975936   14.95988501721891
C        16.21015016844267   -0.72023047963309    8.39501312481124
H        17.23996282330043   -1.03494128191583    8.53900990120630
H        15.82969859664687   -1.19618503226692    7.49441437774345
H        16.19689697950417    0.35648978612909    8.24722256322560
C        13.94462615995993    2.88406489140399   14.95223174684137
H        14.59137307444735    3.02064441297332   14.08631576209740
H        13.51645327394438    3.84543582561502   15.22466476798490
H        14.56851001578224    2.54251084534150   15.77907853095820
C        14.48327137702782    7.11878331800337   10.82299487486393
H        15.31582643213258    7.68180191902881   11.23561238812054
H        14.87763851142292    6.37787283068079   10.13230076401916
H        13.84853739573795    7.80473050206710   10.26691423863034
N         9.32966090687325    2.60240412828525   11.35044379173939
N         9.81667646701604    0.39182517661961   10.66673170595074
C        13.19172887128549    0.51164404476453   14.24517681262660
C         9.67519593916986   -0.49783281043316    9.63517517098991
H         8.76726885632128   -0.60114729919518    9.07862173100011
C        13.91433162139146   -0.65409797246451    9.42531626657974
H        13.50706827917421   -1.09444297521290    8.51348024544012
H        13.88093551113041    0.43166020179727    9.32797085213792
C        13.06566327768436   -1.06270266092183   10.63014304063823
H        13.08471223804838   -2.14973040216309   10.75304639815479
H        13.46807121757576   -0.58854203492314   11.52489267539781
N        11.69268621861942   -0.63990927390652   10.48300509402992
C        11.73372088444524    4.96439416007520   12.49756030783247
H        12.38859094270611    4.28362935148032   13.04098472955024
H        11.34333135632200    5.72125372138504   13.18453568806378
C        10.50053374926178    2.86061424444566   11.98590926604242
C        13.69632676396487    6.43998327803457   11.93630717512409
H        13.32005059314604    7.19559120171693   12.62996043904432
H        14.35809804357404    5.77332784532085   12.49172363123845
C        11.06419803936416    0.30896885940023   11.19382331244624
C        14.58494629960169    0.01345020186379   14.04591535278732
H        15.11785260858949    0.63203564687994   13.32439475007180
H        15.12792600985541    0.06692160924952   14.99030855268931
H        14.60078465484820   -1.01805649771283   13.70280917066211
C        12.52873194042792    5.63226028259335   11.37450986483266
H        11.87803377150547    6.28934495465730   10.79468190111590
H        12.91316884652959    4.85634188236479   10.71140794782630
C        10.85740554041614   -1.14596923630360    9.52585249897284
H        11.15894174571898   -1.92213370847035    8.85376273735361
C        10.78408636801100    3.06317010742477   15.62484974157699
H         9.79673753226113    3.21456075321474   15.19231429665661
H        10.65189296416849    2.82572291400796   16.68140400358535
H        11.33865668120687    3.99506611290523   15.55563169821393
C        11.84793901943590   -1.71497477252914   14.11845132433554
H        10.95342712101242   -1.97173355942754   13.55391641339281
H        12.70846713448198   -2.15328570169866   13.62059056387027
H        11.76031078256540   -2.17034375081135   15.10580815661748

