52
CSD_code = KIFQEX | q = 0 | S = 0 | Stoichiometry = C19H29FeIO2 | MND = 8
Fe        6.87788733849456    6.85932054919370   10.05270677905897
I         5.90360760978412    6.25559363904873   12.29488417540742
O         9.35213125724241    5.40880107468725   10.36397983257524
O         8.62343632692021    8.85407679927986   11.20240161017550
C         6.61817273055813    7.74611559728891    8.08183130622835
C         5.37862293829439    8.01418826920446    8.77968438106407
C         4.81811818897175    6.74857023442962    9.08897825909236
H         3.87820458581781    6.59292157122699    9.58598588833075
C         5.62043131569226    5.69040542970437    8.58606772305453
C         6.71478836575770    6.31342982855173    7.96342062638577
H         7.46073925944135    5.79362675511872    7.38820506944563
C         7.60548474427618    8.58078407730397    7.27332076396541
C         8.97383096590305    7.87469542730962    7.23204978178402
H         8.96069781959358    6.97996533674003    6.61697100797407
H         9.29490158515348    7.60598594670012    8.23768721413775
H         9.71596677024258    8.54524702486880    6.80569973800512
C         7.88480288743184    9.98981548292619    7.79848279578974
H         8.61742206995707   10.47160416334733    7.15335807100119
H         8.30426533765984    9.94414473865380    8.80030448212006
H         7.00277883737392   10.61795069300170    7.80701737138822
C         7.05547400107608    8.66029336204229    5.83854498813157
H         6.10458962932796    9.18458348958062    5.81088026151698
H         6.90352556748167    7.66255798952006    5.43217940881149
H         7.76006730422037    9.18874155102439    5.20045176751882
C         4.62331062959582    9.29262181665806    9.12848308344432
C         4.28570131165945   10.08233787664180    7.85606065826771
H         3.64899612140585   10.92754556530484    8.10846487581994
H         3.74596208994435    9.44635056701764    7.15620240907850
H         5.16700394098916   10.46843569580389    7.35717673165050
C         5.40084774545926   10.14623276972187   10.13850628857488
H         6.38484595899635   10.42233705961984    9.78390352792159
H         5.51845838734530    9.59226001271282   11.06872680946843
H         4.84875733405176   11.05793357582262   10.35630016671370
C         3.28071503470852    8.96156025742958    9.80247570662244
H         2.76912848854497    9.89114693302590   10.04248853626136
H         3.42413987911223    8.41962133631415   10.73410831784886
H         2.63198126212301    8.38817971194393    9.14361361225962
C         5.29181979604897    4.21742076288183    8.54364158936281
C         6.48128746147962    3.40476872912676    9.06739558321887
H         6.26669785643931    2.34067442072959    9.00504746295404
H         6.67773459624066    3.65287676745817   10.10887604301418
H         7.38110119017952    3.60499176704852    8.49020761804461
C         5.01146696254817    3.83991583156338    7.08087172098518
H         4.19562801482406    4.43977788146865    6.68196854684178
H         4.73220879978655    2.79119714490719    7.01381952204730
H         5.89092554103248    4.00093339376249    6.46136962807094
C         4.05925345177898    3.89998133898994    9.39297490463743
H         3.17682129004119    4.40500870159416    9.00577687586678
H         4.21160073968011    4.19617543043446   10.42780808660130
H         3.86776682785135    2.82970916561990    9.37551320408656
C         8.34710262261556    5.94308400418383   10.25482768333784
C         7.88348922884711    8.11480245146046   10.73919750403422

