42
CSD_code = KIFSIB | q = 0 | S = 0 | Stoichiometry = C14H21MoN3O3 | MND = 6
Mo        1.10168837860578    3.07905707167471    7.88267841971643
O        -0.27754288984757    3.07943955301177    5.14660777403683
O         2.93478145547434    1.06792797833420    6.47431307893823
N         1.63664790631713    3.07941561865428   10.09249667887272
N        -0.21823253279327    1.91984911673369    9.32166167774117
C         0.22674966115471    3.07964024506051    6.17610446125394
C         2.24999791543244    1.81351436529144    7.01198411291189
C         2.23846165590823    1.89118973767571   10.68063254309717
C         1.76665300269143    0.63705848706157    9.96602426360184
C         0.25219285543884    0.64882688704269    9.85373939740784
C        -1.64907643740943    1.83648730023620    9.06578399707834
C        -2.14359419158234    3.07939968484949    8.34657861205808
C         0.16488878089137    3.07941066142329   10.14465300610197
C        -0.42893444679667    3.07941493419811   11.57231884735984
H         2.01417726602449    1.83039245518697   11.76015648967243
H         3.32343617047584    1.97835627852060   10.57311372276307
H         2.19600188948946    0.61821809983814    8.96369455519647
H         2.09719926389754   -0.25116812668899   10.50623605182268
H        -0.06201864466642   -0.13891422241759    9.16308372089203
H        -0.21102844614508    0.43751041437403   10.83363566674234
H        -2.20804949184286    1.68364584746471   10.00574379296920
H        -1.82393086061435    0.96279812082288    8.43137677584117
H        -1.75126168285157    3.07939269864257    7.32904365257810
H        -3.23364553581614    3.07941103700201    8.30243618081212
H        -1.51572928517440    3.07940449962832   11.54090648201171
H        -0.10963789754568    2.19997825337930   12.12612778685415
N        -0.21819329863938    4.23894571358149    9.32160693886315
C         2.25000446294394    4.34505136210208    7.01254899649344
C         2.23847417748101    4.26763223105892   10.68062718245726
C        -1.64904263111640    4.32231528580900    9.06574978831681
H        -0.10964650315905    3.95886055462956   12.12611874014757
C         0.25221057752025    5.50997482932547    9.85368689087646
O         2.93428283846956    5.09097136390375    6.47455943926277
C         1.76666365684439    5.52174833789608    9.96599979937145
H         2.01420552024934    4.32843663960547   11.76015307381716
H         3.32344607281661    4.18045560621178   10.57309281447473
H        -2.20800653560022    4.47517061354020   10.00570811145989
H        -1.82389790269557    5.19600192184481    8.43134167317456
H        -0.06199339432431    6.29770803999725    9.16302389425544
H        -0.21102274242233    5.72130524274374   10.83356982725326
H         2.19602162626319    5.54058348771204    8.96367711328817
H         2.09720021665316    6.40998177303770   10.50620396815615

