69
CSD_code = KIFWEB | q = 0 | S = 0 | Stoichiometry = C18H42N4O4Pd | MND = 4
Pd       -0.00007873785468    0.00024271970766   -0.00006445184054
O         0.56218157115356   -1.49179604434766    1.31072613755196
O         2.77569567420671   -1.46451986284414    1.00591819970353
N         1.82811817913504   -2.99633817026579    2.36971406114199
N         1.95753787672326    0.77876293464783   -0.25367889654628
C         1.73844412758124   -1.92492795525901    1.51320970531849
C         3.11088728677540   -3.58898838571087    2.66191780166779
C         3.58554529847686   -3.33520994107384    4.09140080608176
C         0.63360609762804   -3.54237119275868    2.97242600008203
C         0.10895770010620   -2.69170309461879    4.12948776224690
C         2.23353728348653    2.04633395165899    0.41611223122699
C         1.47605942606991    2.12762567883795    1.73601412821961
C         2.48178431041632    0.74920207987918   -1.61680330886015
C         2.10903526826284   -0.56721658938012   -2.28528451443737
H         2.42740020476035    0.00221424838686    0.26969805562025
H         3.05702364262458   -4.66946718655398    2.47632586695970
H         3.81826167898814   -3.14536766812235    1.95784403093341
H         4.59085965389318   -3.72948043392251    4.21798313508965
H         2.93198023575166   -3.82139933096486    4.81208121556058
H         3.60166875280596   -2.26733866420754    4.29401518142732
H        -0.14125796117070   -3.60467960294111    2.20009228511313
H         0.86292660523243   -4.55358472707914    3.31821275497942
H        -0.80974323346240   -3.12154995189239    4.52254230117356
H        -0.09545847574731   -1.68648394421260    3.77112675495720
H         0.84014191054155   -2.63290151693796    4.93108474497655
H         3.31492508057424    2.15191878131911    0.59223988012285
H         1.91195949880439    2.86518292346511   -0.23851117718393
H         1.74960730940398    3.02948749556078    2.27957931948176
H         1.71392961770205    1.26106311651295    2.35554615653405
H         0.39843615353306    2.15458465883254    1.52805778265488
H         2.05309661050576    1.58652126455757   -2.17797794468833
H         3.57611901646793    0.86546783826763   -1.59724392647452
H         2.56773114495941   -0.64220251031893   -3.26862461611702
H         1.01951859743900   -0.61218225672233   -2.39810994222264
H         2.45300138430379   -1.40034784615074   -1.67104251423624
O        -0.56199443192189    1.49253844973294   -1.31051613293094
N        -1.95739423332291   -0.77828133695355    0.25415654016198
C        -1.73832505427669    1.92528403410230   -1.51327921582641
C        -2.23342916984224   -2.04578525425832   -0.41572024322855
C        -2.48164937176247   -0.74861643778354    1.61727057276248
H        -2.42707381583124   -0.00163375074791   -0.26926943125920
O        -2.77552057290912    1.46499603492310   -1.00574031847004
N        -1.82815457169586    2.99644170832313   -2.37006853143055
C        -1.47593299805586   -2.12701314182466   -1.73562319482057
H        -3.31481691213852   -2.15129624137824   -0.59187400602296
H        -1.91188892539689   -2.86465904782607    0.23888321348342
C        -2.10880040588412    0.56779274804227    2.28572454289802
H        -2.05301466404218   -1.58596843544252    2.17842864291741
H        -3.57599128213370   -0.86479439595025    1.59768599331976
C        -3.11102976092535    3.58869910034536   -2.66254324653823
C        -0.63374273414454    3.54229191571028   -2.97312561216748
H        -1.74953494298723   -3.02881758449601   -2.27925754581472
H        -1.71374317633800   -1.26040493030146   -2.35510999443931
H        -0.39831459396718   -2.15403095851448   -1.52766640675550
H        -2.56755812146547    0.64286768341529    3.26902861207116
H        -1.01928763853159    0.61265219472111    2.39862261489945
H        -2.45263524960451    1.40094096210943    1.67143271599139
C        -3.58595763851927    3.33341617749910   -4.09167410622570
H        -3.05717421485858    4.66935203166917   -2.47800812005002
H        -3.81822416084839    3.14570815450027   -1.95789429982023
C        -0.10905555138637    2.69105622029110   -4.12975644885589
H         0.14116423264621    3.60505353488311   -2.20086989207219
H        -0.86318297423961    4.55331408882854   -3.31940001170913
H        -4.59134653964298    3.72744324632905   -4.21840622807212
H        -2.93260913818330    3.81896238947183   -4.81298648613989
H        -3.60200728151969    2.26533210909389   -4.29320043982044
H         0.80957766407734    3.12080158751202   -4.52307745152090
H         0.09549460322601    1.68603658792332   -3.77090746241999
H        -0.84028516365641    2.63176974070372   -4.93127362831964

