59
CSD_code = KIFWED | q = 0 | S = 0 | Stoichiometry = C32H20MnNO5 | MND = 8
Mn        2.52769182374075   10.39815464115760    1.72263885586199
N        -0.53806281921165   13.14811813441086    4.52726852509455
O         0.18262145108710   13.82004527268186    6.56553227948641
O        -1.22142508447191   12.51130792820010    2.45684664891610
C         0.42094242929335   13.69557285195750    5.38717328327121
C        -0.32484533228205   12.82527506967661    3.20710293933812
C         1.15836334625276   12.70518300068613    2.84510608479112
C         1.48856117954271   11.33379220539575    3.48830022074269
C         0.77366925235195   10.25414254779993    2.94030988656156
H         0.57790896215946    9.37068076565714    3.54778651151349
C         0.36070863469025   10.25479603945255    1.58145819089753
C         0.78180655173122   11.36424666300601    0.78540109384869
H         0.59290636218960   11.35732653048626   -0.28557373581470
C         1.41743188701790   12.46086061216450    1.37302853898125
C         2.09319625117853   13.47404874396601    0.60432535707777
H         2.09909177657012   13.35878312228207   -0.47152474781359
C         2.79170969932062   14.46044895178760    1.19648738904603
H         3.35818420942396   15.16705627022800    0.60986953537671
C         2.76198709532484   14.65104773196455    2.62765202743256
C         3.48328401112888   15.66827573946181    3.25641223710545
H         4.17867841717993   16.25250492654040    2.67216126963462
C         3.30532758680643   15.93980377532959    4.60155067935590
H         3.88930392768846   16.71381628041539    5.07566780808925
C         2.33406828471046   15.26899033637773    5.32254394600944
H         2.10796918987382   15.52419164931400    6.34590571757727
C         1.60529660326344   14.25196406547354    4.70974220072606
C         1.88722645953302   13.87914709725457    3.40002777251872
C        -1.86753446100151   12.96334074688865    5.08361564105829
H        -1.79616278111520   12.35064295616860    5.98209899040209
H        -2.48592765163150   12.47856719369439    4.33165720568418
H        -2.29900574528861   13.92766708167780    5.35296727181786
C         1.88829225443295   11.30945495303366    4.91042585851232
C         1.02708431560569   10.76907195526009    5.86626568876214
H         0.07739276796578   10.35165806724950    5.56034085296246
C         1.36134687698061   10.78810791994124    7.20629364543274
H         0.67719459538615   10.37594849617452    7.93269712856489
C         2.55924144927831   11.34575857312509    7.61717818135292
H         2.81321857286052   11.36981927913103    8.66580988034674
C         3.42908244147496   11.87124819764090    6.67711468505219
H         4.36947138931696   12.30094722484940    6.98787511981832
C         3.09901628223609   11.85404452524476    5.33597166868997
H         3.79071834018642   12.25383928269409    4.60879008896570
C        -0.57301833460870    9.24106844346011    1.06387042488375
C        -0.44704647189973    8.71289288471030   -0.21936808541481
H         0.38353128272419    9.00886384467607   -0.84552933608872
C        -1.35582627709802    7.78248437768952   -0.68515260538088
H        -1.24240909988631    7.37577624718089   -1.67915069796155
C        -2.40462787867300    7.36762555456813    0.11915891912492
H        -3.11362957903670    6.64022129820743   -0.24691760277118
C        -2.53945092649586    7.88832771851655    1.39474769460655
H        -3.35714259580618    7.57194217135357    2.02560386283706
C        -1.63100977899230    8.81742939583115    1.86585970444147
H        -1.75501416510460    9.23854505451356    2.85367948895868
C         3.15294553491368    8.91014713765388    2.49579033481816
C         3.01935312080667    9.81075525518648    0.10772170780115
C         3.95429902359637   11.44546469006495    1.99716337542535
O         3.50832357657799    7.95283345738166    3.02341196545575
O         3.31999052011693    9.46209064145206   -0.94570544700079
O         4.82820124608312   12.17943442165222    2.12571387321525

