85
CSD_code = KIFWEC | q = 0 | S = 0 | Stoichiometry = C29H47BrCuN7 | MND = 3
Br        6.37952812443888    5.38174036709357    3.43010503629458
Cu        7.10773152591115    3.25296059378956    3.19833571665872
N         8.68554496131763    2.06585132776217    3.36786710443645
N         6.30103757398762    1.71895410658386    2.12542607235528
N        10.85262939142661    3.80015993677003    5.73970473270210
N         4.18324781586254    2.31100905069556    1.34699054557173
N         5.83788138969166    2.70973555996919   -0.08242823575053
N        11.79982529642617    3.85885906281765    7.81756841719663
N         9.57452135429265    3.80333103311968    7.86897983250970
C         8.50150998451324    0.87468629561861    2.80237693047979
C         9.37872524301325   -0.17768855082232    3.02502819831668
C        10.45810303926572    0.02165772953570    3.86867067304454
C        10.64458950934021    1.26961025752961    4.43943892042431
C         9.74381487684498    2.28501005727726    4.15337358553236
C         7.29377938387754    0.69988510713173    1.91999923750018
C         9.93372032691327    3.69533455146486    4.65386493848089
C         5.54661568610678    2.22232542824582    1.18176895542438
C         3.63591956496325    2.81716694763352    0.19454688799335
C         4.63043958309456    3.04530565947643   -0.67482572242010
C        10.67479015907409    3.83180696106178    7.00650538192303
C        11.39672870154949    3.83185547124777    9.13543158097892
C        10.05799323988209    3.79612790049684    9.16674155755507
C         3.43614653455525    1.89361584686826    2.53709782945499
C         1.93912225513114    2.12288341429640    2.32109838034844
C         3.88820159214223    2.71130308122978    3.74643825317497
C         3.68191703645787    0.39997955265545    2.77811834565023
C         7.04945853433882    3.34550705739064   -0.63946634766552
C         8.32911165011094    3.06368570303224    0.14200327190833
C         6.82513229566996    4.86591422606245   -0.61364884361301
C         7.23809195039145    2.84207955427313   -2.07681475250760
C        13.15804695106078    4.11166769757115    7.34299045924911
C        14.13147668920784    4.16196329449840    8.52233331172520
C        13.59004589351164    2.99089591195530    6.39278437573686
C        13.18310299484239    5.45800595883753    6.61158220359024
C         8.17098314657065    4.06429531269565    7.53533319983282
C         7.62512341275264    2.91433854438296    6.66462019905974
C         8.07596522821379    5.44910495059945    6.87441682051009
C         7.30619538877082    4.11942680967718    8.80026082424574
H         9.20561993626768   -1.13255427165030    2.55258570544499
H        11.14809327478431   -0.78327577113755    4.07466619301890
H        11.46973943145409    1.47426560365083    5.09992904575406
H         7.62153969390039    0.60442958244812    0.87359628955710
H         6.83897524986230   -0.27310760327482    2.18168525505193
H        10.39969629970442    4.24590713352275    3.81889899486195
H         8.94307000764271    4.13966282942672    4.80085063642400
H         2.58920094317026    2.97989416161441    0.06250170775900
H         4.56869101328557    3.42401169573202   -1.67228790178557
H        12.08021891440508    3.81923984514571    9.95592475610562
H         9.42035857257082    3.74505325530271   10.02150650524718
H         1.72518966469235    3.17567631952727    2.15462129660267
H         1.40724898798958    1.81191835531117    3.21654062227356
H         1.56263913602844    1.53596601281040    1.48603970932651
H         4.94187370849334    2.52605757975307    3.94741502420703
H         3.31161791594211    2.42896491514189    4.62320702501549
H         3.75212343801978    3.77463505090587    3.56356023640802
H         3.42954737671584   -0.17482506077719    1.88903283878179
H         3.06631102003374    0.05387047710257    3.60391018452684
H         4.72412840425420    0.23209229285124    3.02508563084290
H         8.18539017579379    3.23938690683339    1.20667804919126
H         9.10309531665564    3.74552828711552   -0.20256454186415
H         8.69041523950485    2.05070649131643   -0.01255024540426
H         5.94913800731409    5.15561120333286   -1.18679185741953
H         7.68929841500661    5.37477633876877   -1.03230758706236
H         6.68825193882894    5.20897712886388    0.40972754999803
H         7.25799721113976    1.75387090215576   -2.09604868251941
H         8.18204175742019    3.21174371028633   -2.46856583435882
H         6.44465838401168    3.18359442228834   -2.73518950278503
H        13.88549305686495    4.97298616523276    9.20359806489551
H        15.13439415720133    4.33690612577246    8.14100433470308
H        14.13647401637084    3.22103497077633    9.06800701362501
H        13.49983711969017    2.02438364961980    6.88450624265104
H        14.62418131856009    3.13530991165791    6.09174705434275
H        12.95438276810498    3.01240846692810    5.51467839105059
H        12.48093746170645    5.42718193136973    5.78454292828627
H        14.17948452176484    5.65897514476115    6.22801110755045
H        12.89762569739848    6.26062441278144    7.28816889724398
H         8.43272894966844    2.35404940496959    6.20402526365775
H         6.96774686153461    3.28986339342150    5.88353668277226
H         7.05485201954057    2.21615421035315    7.27422166369145
H         8.19058343904554    6.22220444986929    7.63228681838748
H         7.11464609743647    5.58675696529794    6.38810428421838
H         8.85794363534634    5.60465529036896    6.13916476733046
H         7.33888971636858    3.18065978020373    9.34959967586274
H         6.27917191501097    4.29964724132373    8.49165629695655
H         7.60625952820945    4.93216892042137    9.45746553160935

