52
CSD_code = KIFZAC | q = 0 | S = 0 | Stoichiometry = C22H24CrO4Si | MND = 9
Cr        7.61132979861927   10.95566981801001    5.06931812071989
C         5.52844785489632   10.61669576395380    5.84891573789188
C         5.45025655241609   10.81614528378053    4.44540992685975
C         5.98724152605211   11.98002554177676    3.88859834482281
C         6.60255651792262   12.95648501848410    4.69642355270672
C         6.67337321602881   12.76551333523857    6.07260606261256
C         6.13302920716398   11.59590526022745    6.64330787145413
H         6.12476189309792   11.48940655266938    7.72243128105085
H         7.07894803148370   13.53788663688851    6.71516809228636
H         6.95065599547399   13.88000746335776    4.25055989204042
H         5.85669283328712   12.17355019371113    2.83028753491763
C         4.70502289822646    9.84608796687402    3.57106405243044
C         3.18916957908286    9.85467057131517    3.87616375237032
C         2.79234827966932   11.30116071395226    4.13325830439442
O         2.65223314511194   12.08232996929870    3.21351352853757
C         2.64280322319312   11.74691391589418    5.52175870844377
Si        2.13115353867291   13.57541156116734    5.69116330649389
C         3.51753498126185   14.67557737710746    4.98431693403421
H         3.23546899582106   15.72347923314473    5.01905372629260
H         3.72107934613280   14.42094251191722    3.94961809750431
H         4.44076843616441   14.56470419576242    5.54696061936276
C         1.93049434762643   13.95217407270816    7.55109647094767
H         1.62411013213254   14.98305483377626    7.69235940303715
H         1.17443541900574   13.32428927271487    8.01178471487971
H         2.85794682355061   13.81348092071668    8.09810006439481
C         0.46988332190444   13.84331982315415    4.80221354383076
H         0.14623954780040   14.87635710355383    4.88498439728640
H        -0.31349037136980   13.21848447301772    5.22245139161160
H         0.55602816794840   13.60484691420586    3.74751501130942
C         2.87755213564473   10.91377956689157    6.53984047051371
C         3.32034593515356    9.49418415457262    6.37270539099387
C         2.81384502942798    8.93033274077508    5.03779027923340
C         1.32214764577263    8.75953212988505    5.08884963460876
C         0.70684866875760    7.60023583589625    4.95560722913738
H        -0.36546833589134    7.51577297479313    4.99450570505724
H         1.25094047660720    6.68276964535289    4.79955046966072
H         0.75629480530808    9.66907305381037    5.24170127329238
H         3.26744958329982    7.94665286954934    4.86927438485573
C         4.86473481846339    9.43254126406593    6.49630093854372
H         5.13266467243280    9.41232276165482    7.55500816547723
H         5.22035785919673    8.50080436501808    6.04929443922627
H         2.89828773428452    8.88375556475719    7.17905746732317
H         2.79189310042163   11.27223551838814    7.55675494823385
H         2.66395721631714    9.51658622509492    2.97609438012540
H         4.85177321527560   10.12875307678092    2.52684115761916
H         5.09284424192514    8.83194612485971    3.69992638411754
C         9.05357764202557   10.79830843269302    6.17152836300310
O         9.99784099271706   10.64168704581710    6.81864002842176
C         8.92670923500130   11.10534960874511    3.81620247288588
O         9.79658372462982   11.13150374241686    3.05706216408462
C         7.96055095782247    9.19068431085554    4.82056247219613
O         8.22284540702953    8.07431268894735    4.66419933686477

