48
CSD_code = KIGBAD | q = 0 | S = 0 | Stoichiometry = C18H22FeO7 | MND = 6
Fe        4.81810100753362   10.73687529383709   26.98114868674856
O         3.42962938200709    8.21030995845684   26.46479251229130
O         2.51832887952795   11.72998454055698   28.45398366229904
O         7.40275290658236    9.60159731040052   26.27539083243553
O         6.17335748766221   10.99829764385317   29.55214879553294
O         6.26517516067370   11.48562694893163   24.00283053580150
O         7.51551962653878   12.91474184993286   25.19472847742261
O         4.75083959218400    9.71973676484237   23.90180427112421
C         3.96565454283241    9.19628233595787   26.65405623996723
C         3.40454423916414   11.36947911199782   27.83129394998619
C         6.36732889741941   10.03424829981530   26.45885286404557
C         5.65961698321573   10.92549025416773   28.53491354596867
C         6.47093371103465   12.35337025437988   25.03322571204555
C         5.20909127824878   12.47824753979376   25.81413174486310
C         4.24513129836618   11.68098010887192   25.16975411072762
C         4.89486891277490   11.09011256302416   23.93144102964874
C         5.15072845077372    9.06322754018439   22.68475435663040
C         5.26561940385932    7.55924887025392   22.97609464055807
C         5.66837627022453    6.84042992629123   21.68691769851333
C         4.64045336474676    7.07119346014514   20.58500738480597
C         4.49798732382605    8.56239965759495   20.29047380848599
C         4.12038211479884    9.29861893917038   21.57561825009801
C         3.45859351898555    8.81404619167203   19.20172275654537
C         6.19504401461233    7.25744007780617   24.16765001221124
C         6.02568952593485    5.81686566448777   24.64940988144687
C         7.66748724923243    7.54513620387522   23.88718795728079
H         5.02070919512429   13.42452328391674   26.30765759674660
H         3.19925691674309   11.95009391385784   25.07314891960185
H         4.48353771552644   11.55837071180034   23.01847155244031
H         6.12393608183158    9.46538922400197   22.37772462599887
H         4.26361717371146    7.22185840476799   23.26524487411616
H         6.63775450061826    7.21038911324106   21.34967748299152
H         5.75973159237428    5.77122606443007   21.87855820933060
H         4.94648403123151    6.54409146926317   19.67896140757382
H         3.67281243914354    6.66990175402364   20.89463454970780
H         5.46612600690308    8.94335440024707   19.94583045654006
H         3.14706846650797    8.95050295388945   21.92973385793004
H         4.03604210516614   10.36670096450533   21.36192490487098
H         2.48236879608638    8.45237509146042   19.51751905292344
H         3.73526086209072    8.29756802629254   18.28569434932805
H         3.37730064668839    9.87669595740035   18.98470050638726
H         5.86533083291236    7.91497038962100   24.97826877722317
H         6.39519718260650    5.10933939687832   23.91120608694613
H         4.97938474004503    5.59658051335933   24.84856789924499
H         6.58665886789652    5.66501122974716   25.56889373722474
H         7.81270588694309    8.57192551766358   23.56237432268044
H         8.05881907605873    6.87504256578868   23.12561397187665
H         8.24816174102986    7.39740174354250   24.79505914083371

