36
CSD_code = KIGFAJ | q = 0 | S = 0 | Stoichiometry = C17H13Cl3N2Ru | MND = 8
Ru        3.98457634311562    7.44721464603469    1.82871612470043
Cl        3.84713793273415    9.75717599325017    1.99933473654315
Cl       -1.02164144396756    7.87413686779035    2.14264497571678
Cl        4.64590188713291    4.73309874873816    4.16762593475880
N         2.03529868106273    7.40339936170279    1.94463834183760
H         1.36841360061901    7.37512936173394    1.16970914312110
N         3.68554385799593    7.43795471998556    3.75780788902964
C         1.49548335233460    7.69347904586379    3.12096338883956
C         0.13530803069712    7.92269971106565    3.42775597715518
C        -0.25019462384736    8.17229096368957    4.71835488838299
H        -1.28890541385644    8.35415601272423    4.94433990957879
C         0.70116729580508    8.18993787331717    5.75318404045997
H         0.36279942350871    8.38630894778297    6.75859435422841
C         2.03054721385813    7.96477564000107    5.51282800915359
H         2.75507095429534    7.97043416747335    6.31280893284761
C         2.45515877757483    7.72220028091733    4.19219441997224
C         4.77986389219570    7.37290360723793    4.61670309873412
C         5.34031298424596    8.51661369837932    5.18341483944795
H         4.89248105641307    9.47309902204032    4.95810929190334
C         6.46228850336921    8.41455037550285    5.98446379360865
H         6.89439414177260    9.30597252425779    6.41231295077520
C         7.03057398487001    7.17669826538627    6.24059530005010
H         7.90472764466749    7.10039737134835    6.86850211355903
C         6.48333348790009    6.02821240994430    5.69135511500918
H         6.91609799443917    5.05946967338771    5.88511719169986
C         5.36619789985119    6.13216916156962    4.88474981541791
C         5.02086798718051    7.69054179786741   -0.15780050642090
H         4.89080400933907    8.47471418810406   -0.89149295478170
C         4.38472713763170    6.43907100276757   -0.15535687905948
H         3.65622598029555    6.09042722714568   -0.87354379938331
C         4.95330324405678    5.65869079679352    0.89430434009359
H         4.76756281764419    4.60658171735028    1.06308223279283
C         5.99854651999871    6.41944977359804    1.49057770291447
H         6.69806831249385    6.05966136470140    2.23085214132965
C         6.02378514336589    7.68049340779038    0.87420223400537
H         6.76587138920433    8.45279027275506    1.02875091197888

