67
CSD_code = KIGFOW | q = 0 | S = 0 | Stoichiometry = C33H27IrN2O2S2 | MND = 6
Ir        8.00492549904156    3.94855438445373   15.93483258507163
S         5.80467863639735    7.34993369546565   14.01678688734367
S         7.68273093183589    0.33163845035708   13.30819443770748
N         9.11851608742953    5.50232631819987   15.27238694238002
N         6.91887599729743    2.39522447181855   16.64434044647037
O         9.68114591667565    2.93596827905784   16.88703991293943
O         7.88376281811576    5.09405206987636   17.78242498276885
C         4.59983060771670    6.12121955356938   14.26134748859444
C         3.25294106678525    6.23228738862616   13.95230265613874
H         2.86708949205325    7.14501188147256   13.52452417885223
C         2.42794724639044    5.15542451097928   14.20155811468884
H         1.37574753480395    5.22252925384311   13.96807567091043
C         2.94117107174718    3.97919214206030   14.74835905570158
H         2.27683236838119    3.14675205534579   14.92903554514726
C         4.27768787038838    3.86773281664712   15.05643995776441
H         4.67484026722973    2.95588126883396   15.47329778416562
C         5.14194297037947    4.94230625172123   14.82480234794947
C         6.54661004838803    5.04140714413943   15.06812705609835
C         7.01765839768844    6.27256558821595   14.67781981765773
C         8.41118383421072    6.55744231715670   14.79644679213914
C         9.03349963699491    7.75827064824256   14.45518161248884
H         8.42565549906672    8.56901908448060   14.08313594111399
C        10.40180616713400    7.89276213925588   14.59919223177008
C        11.11039892016666    6.78895677202190   15.08389028943323
H        12.18084334206189    6.83931210656894   15.20739776384201
C        10.43546997396432    5.62972574179815   15.40342523457010
H        10.96731962800780    4.76221879704936   15.76857471632331
C        11.11182800607799    9.15845002774716   14.24458856193134
H        11.80680295859881    8.97968827363178   13.42486059772710
H        11.68919622398521    9.51895399881622   15.09459412496786
H        10.40729462924346    9.92893197553708   13.94381152265810
C         8.47083792108723    1.52787760199014   12.32377366108904
C         8.92219104379377    1.34148021796444   11.02627523540666
H         8.80287993511443    0.38433663980259   10.54193059570100
C         9.51940768469263    2.40166658245312   10.37695863535416
H         9.87782580704963    2.27647592661589    9.36601794208416
C         9.66035864354444    3.63529739513603   11.01275008848321
H        10.12495010370615    4.45324362281219   10.48167477451498
C         9.21442102920593    3.82127695258931   12.30123945216860
H         9.31813470520026    4.77730622459223   12.78931584160030
C         8.61180992540471    2.76610045280677   12.99320658479472
C         8.08377217443544    2.73970643379965   14.32090875708384
C         7.55750460472642    1.50201144319170   14.60563606341399
C         6.93484373686069    1.28106931053306   15.87075317767986
C         6.36873528278816    0.08275688338847   16.30584746089269
H         6.40914256791033   -0.77595665250706   15.65301704748435
C         5.77416382874002    0.01162080450566   17.55177737607316
C         5.76427234888524    1.17452589087492   18.32832138087172
H         5.30674830936085    1.17422459014544   19.30519365213538
C         6.34111830662406    2.32786218113878   17.83995451301958
H         6.33289996296287    3.23967141632931   18.42073377526169
C         5.15165209021954   -1.24859487881331   18.05784325439851
H         4.08099211326981   -1.10519800786143   18.19951157989722
H         5.57890373570314   -1.52124467812940   19.02161366309810
H         5.30514255983504   -2.06634636287511   17.35913231993176
C        11.28241013741734    2.25847629612528   18.48607521676857
H        10.99611271575083    1.68492096261493   19.36545731911184
H        12.14321385276715    2.87218714215621   18.74414205705896
H        11.55122404960813    1.57573676907006   17.68367359412496
C        10.12593099411245    3.13781603558076   18.04285823704794
C         9.68491705687116    4.08983138294380   18.96638011783990
H        10.20711518349894    4.13293334288236   19.91078002961535
C         8.63204531745350    4.99098422910466   18.78437942767618
C         8.35539372899981    5.94139016725258   19.93646746884863
H         9.23476593754952    6.55047439889036   20.13556622152462
H         8.11888457051744    5.37850626261283   20.83739132752408
H         7.51874438607004    6.58833361328485   19.68404689310047

