25
CSD_code = KIGGEO | q = 0 | S = 0 | Stoichiometry = C10H11ClN2Pt | MND = 4
C         2.01609329003981    4.86658947310414    1.50274231493300
C         0.76185710584242    4.37492988177681    1.13261305647851
C        -0.23914352444655    5.29808633316134    0.83062742428688
H        -1.22847948979272    4.97554110787798    0.53895129140413
C         0.05210273961397    6.65601624434059    0.91037478185366
H        -0.72748505383368    7.36623013857576    0.67554733067389
C         1.30303475847966    7.13946323701815    1.27995152940093
H         1.47623217615936    8.20515444759732    1.32719955689541
C         2.31465386932009    6.22890909348977    1.58490821046834
C         0.77254446370549    2.93237807139672    1.14428192962791
H        -0.10862715533399    2.34686672968509    0.88343999170395
C         1.95072756229923    0.90474992719903    1.50728528818262
H         2.24070799373305    0.58133924921525    2.50953243428291
H         2.73682844126010    0.57376995310358    0.82479440498974
H         1.00009275062385    0.43904305718359    1.22908770757894
C         3.68619940520256    6.41118081154568    1.99334195129128
H         4.12454295622755    7.40105381327461    2.11700436453373
C         5.76875872532075    5.46499635785739    2.62477392326086
H         6.09059566575836    6.50931985715917    2.68987330209368
H         6.40149121229654    4.92689102743440    1.91517042352832
H         5.89336288545558    4.98031493894647    3.59599708952211
Cl        5.05257606936520    2.09559325456681    2.43421686885548
N         1.87660348596538    2.33932184951119    1.47828072117034
N         4.39698937903389    5.34882694468075    2.21354685254428
Pt        3.39644028770405    3.60723420029836    1.92535725043913

