100
CSD_code = KIGHEO | q = 0 | S = 0 | Stoichiometry = C48H41AgN4O3P2S | MND = 4
Ag        8.51533498029889    2.80568401424544    5.06245356679767
S         6.66694340945096    0.81779690935675    4.69332083151204
P         6.79383168793093    4.73961027603314    4.70929494857633
P         9.11924842448508    2.66744620694105    7.48192657280507
O         9.83045650791157    4.27391554611791    3.51187449720112
O         9.36479647337830    2.30789117955799    2.83677564528252
O        10.04704062508047    3.76950226939345    1.44494443976154
N         6.73616619437673    1.59600250363883    2.21207217157458
N         4.61172233762392    1.27722443951150    3.03535275764700
N         5.11490260372450    1.92160506989718    0.55747351848120
N         9.76408321136370    3.46707967283619    2.58137656210003
C         5.93159208407225    1.25629231676127    3.25721913981014
C         6.39545803058286    1.95643896565331    0.92739079592660
C         7.41357715208437    2.33397395618141    0.04062453170063
C         7.06826838521158    2.66257462007568   -1.25106958266625
C         5.73141123867702    2.60977697750168   -1.63704614769098
C         4.79979064004434    2.24006611830147   -0.68995984494361
C         3.52668081566287    1.11329692337722    3.89203584589191
C         2.31787703926747    1.67182718596510    3.47139641079018
H         2.28084030903325    2.19251644664137    2.52505051853942
C         1.18625485647307    1.56488287750552    4.25331550104946
H         0.25949887330746    2.00668117960986    3.91787554757671
C         1.23728591002597    0.89172102273626    5.46364521121445
H         0.35208874454931    0.80826330617014    6.07611966867973
C         2.42865846546624    0.32012843935472    5.87445906028050
H         2.47445568637110   -0.22004585265470    6.80888245775353
C         3.56991663591242    0.42160389461664    5.09902407934365
H         4.48638740783333   -0.03691621250995    5.42783786595957
C         6.02907702705032    4.93779494028828    3.06568899820111
C         6.86015811189521    5.31889011568184    2.01303741233691
H         7.90446304268651    5.52290003063301    2.20585911989640
C         6.34936390239420    5.45383591167127    0.73694674138943
H         6.99961910859677    5.75427212840808   -0.07089978504312
C         5.00671817118429    5.20589389608673    0.49755249354457
H         4.60381240744197    5.32482227144763   -0.49740977278691
C         4.18455706112954    4.79919508368487    1.53484122367632
H         3.13943335156627    4.59824626329026    1.34747898522487
C         4.69040252850452    4.65568413270466    2.81484669112368
H         4.04324460319553    4.33750644771773    3.62094245841995
C         5.31768286348277    4.84745498683243    5.78405994747821
C         4.72005736020059    3.64720268251998    6.15665887424458
H         5.16644328372379    2.71062541407026    5.85197878307515
C         3.56791829080198    3.64467165517222    6.91921849253741
H         3.10655461341056    2.70636301820010    7.18820369359264
C         3.01202458812189    4.84385520325926    7.33206081875551
H         2.11120206392609    4.84641295350314    7.92815495087904
C         3.61742312219072    6.04096955600557    6.98696628785871
H         3.19077597707822    6.97726987245394    7.31782797246358
C         4.76464842018599    6.04758203395371    6.21388857557468
H         5.23095402696124    6.98566213829938    5.94939667071024
C         7.57215633958277    6.37113546155057    4.93600101407101
C         7.10445012604728    7.53848541407991    4.33937006207155
H         6.24975843101809    7.50546486583778    3.67716494187410
C         7.74633268764618    8.73969062474490    4.58117685653800
H         7.38354445860128    9.64374899489057    4.11338551587599
C         8.85236862247478    8.78762657199252    5.41485207278004
H         9.35002478184096    9.72910579759872    5.59550312537736
C         9.32643518891353    7.62679041196126    6.00354761097759
H        10.19650167323270    7.65495296095066    6.64358559973057
C         8.68956624162723    6.42467254089626    5.76047530234823
H         9.06961697176760    5.50411205900339    6.18776394291807
C         7.59731638583433    2.98705004588190    8.43396880829936
C         6.80062302875601    1.95193071298160    8.91002030846724
H         7.11340732525393    0.92607487505156    8.77754532857615
C         5.60976954860760    2.23528537103250    9.55447701111178
H         4.99729648366261    1.42615787113729    9.92479916115130
C         5.20326764779177    3.54734326483265    9.72708066267701
H         4.27614698471018    3.76529740942038   10.23578516540744
C         5.98584381057233    4.58188495149775    9.24016684516454
H         5.66749568477110    5.60668123811454    9.36346935561405
C         7.16995740383251    4.30538584995859    8.58564510943888
H         7.77312784529274    5.11500584565630    8.19641737509882
C        10.28653047527189    3.86274164929001    8.20853160765409
C        10.22841625664215    4.27081255800296    9.53833696233725
H         9.45362995336888    3.88550424994339   10.18729097444317
C        11.15620730662620    5.17571521571027   10.02067633244024
H        11.11125432355763    5.49118874434570   11.05307328300599
C        12.14176546398202    5.67841723026794    9.18512399347340
H        12.86116684854563    6.38717843567261    9.56817460548369
C        12.20119990085124    5.27697799140610    7.86064078421778
H        12.96400849805957    5.67284736468810    7.20675753415950
C        11.27592879620716    4.37185880077573    7.37272538399795
H        11.30211153506126    4.06295771505522    6.33396441261288
C         9.67207160860317    1.07081556753127    8.16695523189323
C         9.19070110897106   -0.07578071837275    7.53809510062768
H         8.53230216477558    0.02240365311972    6.68333412554091
C         9.55518375409323   -1.32688510340834    7.99872367476815
H         9.17527664943844   -2.21164615487501    7.50969780106185
C        10.41608036599783   -1.44247307483490    9.07871552146510
H        10.70809498730454   -2.41919688111617    9.43562049215846
C        10.91120803355775   -0.30472490586867    9.69411446422666
H        11.59034270627824   -0.39465057799180   10.52968634177532
C        10.54318624802238    0.95100215908666    9.24357856320099
H        10.94076419548920    1.83330716076663    9.72393468516718
H         7.74066335214482    1.63809125046629    2.42254027519273
H         4.39131522215337    1.57729618043880    2.06756999897871
H         3.74382455769688    2.18594528342325   -0.92063995812811
H         5.42864796517039    2.85299892358788   -2.64259364750055
H         7.83152583353258    2.95841291555443   -1.95465132299458
H         8.43928156110514    2.37675023968499    0.36915539911305

