109
CSD_code = KIGPOG | q = 1 | S = 0 | Stoichiometry = C56H48CuN4(1+) | MND = 4
Cu        9.06841365680460    3.60202608842556   10.04577189277162
N         8.74196900539641    3.44727850510136   12.04283685005143
N         8.76872993219084    1.59935504245149    9.94076826647243
N         8.15367732338555    4.56049017831607    8.47925327217606
N        10.63929955521734    4.86879909919584    9.67851876929277
C         9.34043110660476    4.08288792232682   12.98308781412437
C         8.18732382215990    2.13285054936432   12.25473708250750
C         8.81849288008065    1.11843393246369   11.29956083281275
C         8.17050153917615    0.94027117672534    9.01718445039583
C         6.96532669711410    4.45261172758610    8.02043824938359
C         9.17456362454222    5.30975217099892    7.79836179381603
C        10.13583604670354    5.91252315503897    8.82748346958510
C        11.81256910309364    4.90679432095165   10.18465255434640
C         9.66824549569223    3.52382026190966   14.31245649748795
C        10.45667669510255    2.38231216292188   14.43670683986738
C        10.78440860229009    1.89499173095412   15.68880928883177
C        10.31677392106396    2.52913897388404   16.82775810501083
C         9.52718033652741    3.66210983865341   16.71186531363199
C         9.21123732642275    4.16385431749582   15.46323447504419
C         9.67551723808010    5.50169710785386   12.81056547974396
C        10.75345025090678    6.06219242684508   13.49668379205132
C        11.01103869563662    7.41694785468905   13.40874638154596
C        10.18679230090380    8.23568411495519   12.65253090291567
C         9.11498832079426    7.68763007293446   11.96398678718871
C         8.86637282507352    6.32991783501903   12.03367983821927
C         7.35875236942916   -0.27724242760277    9.23360841455865
C         7.68620170253736   -1.45357314167038    8.56180000597665
C         6.92710178358000   -2.59435127586346    8.74404532283186
C         5.82358276056875   -2.56997132960457    9.58192848690395
C         5.48449202115537   -1.40070183720072   10.24219016919023
C         6.25077891046895   -0.26122562627227   10.07746953237968
C         8.33473445511335    1.33063269538654    7.61173428728162
C         9.52592180852597    1.90524246421036    7.17032954098387
C         9.72106296232675    2.16970737465794    5.82804066443028
C         8.72189952960671    1.88492541914366    4.90935633801293
C         7.52513913357738    1.33542308913638    5.34151866786348
C         7.33520874746549    1.04892858860247    6.67993999887437
C         5.94631251883685    3.72254307895278    8.79009725807093
C         5.88471496874333    3.82247233658978   10.17707804264849
C         4.87781270333798    3.18492862023169   10.87935619532568
C         3.93833125449800    2.41767781664156   10.20830727196062
C         4.00375755658368    2.29843397329816    8.82903131103764
C         4.98997114805815    2.95882414014547    8.12110201023817
C         6.47062191376681    5.05643886198201    6.76558663022260
C         7.13022949882035    4.90043285519445    5.54908653458913
C         6.61749993705278    5.47325549753934    4.39902548118503
C         5.45592125898808    6.22516901993059    4.45092349271274
C         4.79596939983202    6.39061244471650    5.65838822723839
C         5.29134524714080    5.80209188261539    6.80604962012267
C        12.79936992309509    5.98873849966613    9.98587935530126
C        14.09167354838332    5.64539885328806    9.58552066371708
C        15.04404604549399    6.62520324026553    9.38083400440163
C        14.72870808902011    7.95771397049553    9.59499594608615
C        13.45358567009120    8.30538165461028   10.00803649282543
C        12.48942529479073    7.33062735273684   10.19222253255709
C        12.29755519144255    3.78038746838945   10.99711861846717
C        13.11118606605874    4.02478738219771   12.10332583348382
C        13.60846449705840    2.97371298472389   12.85025048461419
C        13.32784798600144    1.66626223232679   12.48556696286527
C        12.52910270920813    1.41483987545735   11.38088725782249
C        12.00527043816129    2.46494643095224   10.64835979223767
H         7.11998741499140    2.20793519739004   12.01990073491899
H         8.29766568888787    1.78370180078953   13.28754302805233
H         9.87977840476351    1.02103679038670   11.55287350583711
H         8.33468468183044    0.14346497173467   11.42626463963723
H         8.76060635783671    6.10775241932746    7.17036309749400
H         9.74034417165057    4.62225637259975    7.16090405835336
H        10.93630001058523    6.45427239332590    8.30948247056864
H         9.57708750482979    6.62254742471497    9.44622695534523
H        10.83800356801732    1.89884844174780   13.54976781525856
H        11.40581707312643    1.01642478432174   15.77387238922346
H        10.56976063654038    2.14415724928743   17.80352001055648
H         9.16220686005869    4.15984940079781   17.59716952798200
H         8.59781089030068    5.04841097089618   15.37145572865538
H        11.38809265755530    5.42943580066091   14.09915871653256
H        11.84915075208574    7.84052251358293   13.94092737620603
H        10.37630979554057    9.29727533413251   12.60298281049065
H         8.46633333761029    8.32544302356032   11.38070483829386
H         8.02434433435723    5.90140658595644   11.51207253886148
H         8.54540117341665   -1.47024454960440    7.90707613978377
H         7.19315850009275   -3.50316107910623    8.22636078559792
H         5.22758683595551   -3.45931893438876    9.71668571607616
H         4.62128980156664   -1.37472028349168   10.88985347781162
H         5.97502180212315    0.65537185319989   10.57729668945850
H        10.30581760319774    2.11264269788945    7.88690569102136
H        10.65836387850118    2.58951887748267    5.49159844480757
H         8.87720195987555    2.08671729267413    3.86030275349819
H         6.74424841638276    1.11740341116931    4.62895008271753
H         6.40812778147445    0.60537838481539    7.01149014676825
H         6.61545687958698    4.42630276898286   10.69296352324136
H         4.81670330463770    3.29407272438426   11.95290594416561
H         3.15434779588814    1.91912907642267   10.75780448277318
H         3.27405967014650    1.70082152067200    8.30434134791231
H         5.02883784878037    2.88173800955826    7.04461705402009
H         8.02269629663780    4.29681883630021    5.49678528499855
H         7.13041142402842    5.33387258308525    3.45952899522859
H         5.06319374827911    6.67731272347921    3.55336574481438
H         3.88882729323485    6.97351120870510    5.70384295457002
H         4.77480190923395    5.92919702416895    7.74640216514294
H        14.33909443914158    4.60662397560274    9.42122593282399
H        16.03695633131499    6.34877415952396    9.06071671567364
H        15.47595177884694    8.72138106199582    9.44423930958027
H        13.20543683541689    9.34089759156879   10.18487237605693
H        11.50469602048461    7.60667374914935   10.53538134778065
H        13.34640250298620    5.04294085478304   12.37597421238240
H        14.22886796661719    3.17203440005365   13.71084781936188
H        13.73491499046969    0.84592783266554   13.05692554922063
H        12.32385404843099    0.39589753050068   11.08477012500895
H        11.38847167290557    2.27559818964500    9.78330849714831

