53
CSD_code = KIGRID | q = 1 | S = 0 | Stoichiometry = C22H25CuN5(1+) | MND = 4
C         0.74342654236146    9.21085211241072    6.61729910778372
C        -0.11552613529001   10.28534678745908    6.44454725853520
H        -0.40935116610700   10.89547045813648    7.28338444862995
C        -0.58338982258416   10.55040995719112    5.16727185382307
H        -1.25036368701340   11.38050982947075    4.99278412954633
C        -0.20064089954600    9.73396023917504    4.11376196195661
H        -0.57463791676144    9.93129301991154    3.12426366125604
C         0.66983307635206    8.67958454075642    4.36221374615130
C         1.12767292509121    7.68901539034528    3.30549174265956
C         0.84084607885298    8.17302327444424    1.87907238989051
H        -0.22060100508082    8.32145821442955    1.70251879108282
H         1.21859954722593    7.44056015292764    1.16986303719749
H         1.35902622435398    9.11353836056300    1.70424655490948
C         4.35860857646840    6.06304605184419    2.87715184241459
H         4.63633775821293    5.07726451066470    2.52702678536790
C         5.31451399984397    7.01723633923800    3.18804372885654
H         6.36624614649821    6.80098568840854    3.08565972072064
C         4.87648756852800    8.26374020897024    3.60707199771998
H         5.58337616007757    9.04411147827170    3.84666849311764
C         3.51552776338835    8.50226064009130    3.69649034894819
H         3.14459228488032    9.46867206553505    4.00086917555066
C         2.63763272720797    7.47299427829228    3.36895557591259
C         0.27633115994572    4.61093834040159    5.11799533838190
H         0.61966481332408    4.19112533353582    6.05297288182520
C        -0.65927082781591    3.95468789128341    4.34017913617033
H        -1.06624603667816    3.00717401132485    4.65295471640893
C        -1.04941233807112    4.55217189480453    3.15276494135490
H        -1.77619710720002    4.07930104448780    2.51022061371552
C        -0.48934512075179    5.76779932189067    2.79415696977252
H        -0.78184174015479    6.23158524205072    1.86832537992596
C         0.45042480073101    6.35923967362366    3.62820698146359
C         1.31313008691105    8.81179561609476    7.95042211499081
H         2.34309836483688    9.17930813405627    8.00356301382502
H         0.73830640828039    9.27462142942571    8.76573805209334
C         2.20847123845639    6.94206427367176    9.16872508865787
H         3.22247465269131    7.29431712796974    8.99075295961945
H         2.22551198085780    5.85545293314309    9.22298320812737
H         1.85703338269822    7.33503420398276   10.13071430332245
C        -0.00184907843528    6.83691057024504    8.27162233801564
H        -0.44174857193525    7.21009422245193    9.20552725833651
H         0.02858722781700    5.75025842431181    8.31357151497668
H        -0.64010053590072    7.13424731171051    7.44119410075913
C         4.77308711935346    5.49898329960258    6.12649130034395
C         5.95854927861189    4.73099202045358    5.94636804049591
H         5.83919763216071    4.06759737091655    5.09007827607115
H         6.14626080519488    4.13379883809473    6.83900432223159
H         6.80727796979111    5.39298750094825    5.77487471488530
Cu        2.09499992907755    6.72667649847931    6.04733715607606
N         1.12729378349992    8.45847026126533    5.59206379716814
N         3.05991081012006    6.28299930971998    2.96207340117682
N         0.80991062548636    5.77569177569764    4.77356894340943
N         1.34628815224243    7.35360717215186    8.06901271416933
N         3.83338438797163    6.13453535366237    6.31378007021207

