134
CSD_code = KIGRUQ | q = 0 | S = 0 | Stoichiometry = C50H76N3O2Si2Y | MND = 5
Y         4.91739165113655   13.47007641959518    8.05544955136960
Si        2.48032404315953   15.86432615402337    7.20956707321599
Si        3.76295680191010   15.93100821630037    9.90639489004546
O         6.68251916636684   13.06141719210303    9.01984282889932
O         3.90939936498936   11.90680503062198    8.79283793477988
N         6.78821699366724   14.14253348407098    6.30163469293430
N         4.73276768393578   12.01027515105291    5.88512638490459
N         3.67007621117442   15.27160857281418    8.30828025330210
C         7.88432436924313   12.59265761213126    8.74484537834299
C         8.63974215236292   13.20829970426784    7.72028502697667
C         9.90052759317447   12.75827453719615    7.37451122106860
H        10.42659621663053   13.27266381148932    6.58190543003232
C        10.48859330982875   11.68918349386350    8.03159536468428
C         9.75921083002149   11.10382272840071    9.06050645137812
H        10.20514498121165   10.28388336053247    9.59179898953674
C         8.49392444117091   11.51652551192461    9.44573019733793
C         8.06579651284188   14.41263657680197    7.02968032489966
H         8.80287045215129   14.80134942566203    6.31019242851676
H         7.87080592674704   15.19000119830701    7.77469554242256
C        11.87956497884817   11.22589200538329    7.62525278373174
C        11.86366385746909   10.81746557268775    6.14506208500482
H        11.15033865965743   10.01113584307747    5.98658278886580
H        12.84906546240582   10.47236142398391    5.83823356129866
H        11.58279004079102   11.65196862736102    5.50831127543247
C        12.87088003667433   12.37993830613109    7.83182116650072
H        12.60793574428643   13.24008172327380    7.22226493966992
H        13.87795466744000   12.06617999959343    7.56389082378240
H        12.87041301846154   12.69014359489199    8.87444960624573
C        12.36937113811057   10.02731899180234    8.44203350952398
H        12.43738437457988   10.27639886391369    9.49815433792940
H        13.36157458313387    9.73704146923123    8.10126736424446
H        11.70784847325052    9.17303728655940    8.31868990867004
C         7.77618271502767   10.84233183979422   10.61024435875889
C         8.60789724699587    9.74497005301119   11.28460054123180
H         8.82386558040983    8.92946683775964   10.59773037537126
H         8.03965693801474    9.33565346772592   12.11776498174094
H         9.54111309725294   10.14011240319084   11.67972133525652
C         7.45027556780082   11.90015150888175   11.67198318580880
H         8.36792694694699   12.33750514877269   12.06137587982673
H         6.90058275597206   11.44999400469913   12.49613489477848
H         6.84401658115766   12.68784460562002   11.23788712586695
C         6.47931666467926   10.20153046967132   10.10241595934515
H         5.81444539600740   10.96345477706825    9.70295181931372
H         5.96599010775568    9.69254756998513   10.91542134416477
H         6.69271878882944    9.47108853761888    9.32279945798424
C         6.42771934581487   15.36485864911395    5.63076302733750
C         6.06214034710979   16.44979023220272    6.43005071996710
H         5.97960825536363   16.32392954437763    7.50203183578386
C         5.78360113522688   17.68027849914055    5.87096698184006
H         5.52486093855621   18.50759001179116    6.51348872601843
C         5.83970407276966   17.85493256245039    4.49749363623664
H         5.61704321459253   18.81490609129557    4.05756596684667
C         6.18092872889083   16.78263045790496    3.69638720813592
H         6.22511818024253   16.89970829839350    2.62349744856534
C         6.48691122263092   15.55043590636059    4.25341265695471
H         6.76920489756426   14.75255232269566    3.58489849111242
C         6.99111932062424   12.98044411638728    5.42833965511141
H         7.47328924025655   12.20621792492218    6.03410905343518
H         7.68244875586996   13.21331079205851    4.60437573334723
C         5.69076319601289   12.42459967700869    4.84964585316916
H         5.19800393960135   13.18261226082856    4.23195471779708
H         5.96695660962330   11.57879732548489    4.20004702394443
C         3.41994812930173   11.78270419678931    5.30477220829359
C         3.24452885573989   11.05994163037669    4.13060479083614
H         4.09257231459225   10.68278530300492    3.57934818502637
C         1.97122739329824   10.79494503137731    3.65726553345733
H         1.84989794245379   10.22918402946963    2.74514674683772
C         0.86066393606778   11.23824538244931    4.35240080186970
H        -0.13093170327528   11.02056476052852    3.98514068741586
C         1.03031098895074   11.96077653513735    5.52064744918081
H         0.17084935075542   12.31307859036846    6.06939118214551
C         2.30125098297791   12.23459223363816    5.99182816198280
H         2.43252093798394   12.80432211455053    6.90475238420098
C         3.43150992084654   10.74647156590566    8.38141522680372
C         3.99113445082760   10.09564270211375    7.26298148850039
C         3.44015000971583    8.92507455891223    6.76560005390762
H         3.89577611691931    8.48445334307741    5.89239882477439
C         2.33299338870535    8.34396254611264    7.35383371609337
C         1.82332676547726    8.95882480962056    8.49593095202411
H         0.97277975202350    8.50273255614634    8.97247850579558
C         2.33800355112495   10.12077614910310    9.03646623059869
C         5.14979485452698   10.72541127254880    6.53097534191399
H         5.50096539048025   10.02576045220639    5.75672217809683
H         5.98053210727408   10.92531081339798    7.22136736900098
C         1.64017859346895    7.11271531993737    6.79166131573908
C         2.33377857833634    6.57082907267704    5.53882857069026
H         2.33947258995850    7.31599339839522    4.74643531060164
H         1.79802804190492    5.69579479774887    5.17559309548218
H         3.35648157707915    6.27260730513378    5.75731653482605
C         0.20327274729302    7.49595647179692    6.40857781285660
H        -0.35963175606507    7.82746018899115    7.27633699438281
H        -0.31251867440557    6.64317692169915    5.97132424890306
H         0.21669950574308    8.30666772005188    5.68243274179820
C         1.62005097454366    5.99837611077269    7.84633014972833
H         2.63596359497863    5.74046597383944    8.13744153374272
H         1.13747507129020    5.10876173116095    7.44609617357800
H         1.07955945939577    6.30662965457663    8.73650303759415
C         1.74887444035972   10.74854248700996   10.29532722718309
C         0.58967060101794    9.93605930426878   10.88394923604088
H        -0.24607619720777    9.87695293804154   10.19006556563698
H         0.23680104906890   10.42478494334043   11.79024799457396
H         0.90790883915811    8.93043701237896   11.14922130679135
C         2.84492636372780   10.84078523934518   11.36516512002841
H         3.19864491838015    9.84448060362111   11.62351484088550
H         2.45619171305866   11.31683827962850   12.26331037326366
H         3.68446179230975   11.42212819837361   10.99738070501116
C         1.21693690046033   12.15144523258599    9.96953205777887
H         2.02018942463980   12.79901426607862    9.62123088408316
H         0.77440772410162   12.59851153733461   10.85797756322109
H         0.45162505054975   12.08680311602692    9.19734761132139
C         4.76731015164750   14.67845342509779   10.95316782118469
H         4.49037228078406   13.65035809457887   10.70006179960505
H         4.58690551068673   14.80620897534574   12.01649561264300
H         5.83725940077576   14.80296043958723   10.79130267481884
C         2.08274891472371   16.21018110402889   10.77371952381169
H         1.52490151069448   16.99493979321247   10.27587663410973
H         2.21571278973945   16.50823903564935   11.80871852987621
H         1.47244896580015   15.31399959615939   10.76047121131898
C         4.70900867882164   17.60157586719924    9.97226518191149
H         5.75792762539491   17.49357283223157    9.71120053331430
H         4.66657357933646   18.02706630129425   10.96966225439247
H         4.27108736959270   18.32104259124571    9.29026207314821
C         2.27839802735383   17.76455189312911    7.17186098606822
H         2.00456779042399   18.14548117497366    8.14907042942942
H         1.49656218520493   18.05170203809235    6.47591765301356
H         3.18940548371723   18.26424801174729    6.86388818845177
C         0.70924283695896   15.20347547647182    7.55026717281544
H         0.71045489734176   14.17082482390476    7.88073622135372
H         0.08652998383927   15.26852115987885    6.66281080486849
H         0.22966576616364   15.78766656995535    8.32818176416668
C         2.97475892581465   15.34821335788225    5.42857087093314
H         3.31902601771787   16.20238051829203    4.85565643400520
H         2.13745422512216   14.91072499610788    4.89548895998974
H         3.77831516640404   14.61597571411523    5.43817649716120

