36
CSD_code = KIGSOJ | q = 0 | S = 0 | Stoichiometry = C13H17Cl2N3Pd | MND = 4
Pd        0.23689038474666    0.34816931645685    2.35774158221304
Cl       -1.48748346796787    1.61979467182322    1.79210066870893
Cl        1.47285529661232    2.17491938158723    2.60705935198528
N        -0.90123241263441   -1.61434444848585    2.40616579290317
N         1.53324569120761   -1.67354723804565    3.95394557854523
N         1.76965364185378   -0.83767216595101    2.92954822167453
C        -0.92529280100375   -1.58508742787933    3.83661428945089
C        -2.12084553379832   -1.49617226617293    4.55286185818588
H        -3.05940748493441   -1.42884655877611    4.03005710825106
C        -2.14056265159890   -1.47791452351004    5.93665405899246
H        -3.08746506239148   -1.40211149034402    6.44797938766975
C        -0.96457322109761   -1.55382440034754    6.65834924554347
H        -0.97515477249569   -1.53086518003829    7.73609843447148
C         0.23781756435092   -1.62906765851496    5.97959493955931
H         1.16826486112693   -1.63374489222524    6.52443198532614
C         0.27300208163804   -1.65616255713887    4.59212101851013
C         2.63573248774816   -2.42531421312275    4.21274212679631
C         3.59583739914503   -2.03333616426124    3.30329971302628
H         4.58938385732213   -2.42187124260283    3.21565268139710
C         3.01021588959840   -1.02708776345049    2.51750288220977
C        -2.19710955967620   -1.44780726310280    1.74846676372449
H        -2.02160913938421   -1.36813642662591    0.67507738350240
H        -2.66494886367497   -0.51708324504851    2.06967277961353
H        -2.85747309861190   -2.30356721073829    1.93662054035494
C        -0.26259887963162   -2.80933177450502    1.84553005185840
H        -0.03866025968486   -2.63354459922831    0.79232237729706
H        -0.94235897418505   -3.66811890541060    1.92103201203304
H         0.66183645242527   -3.07125418365732    2.35280030009927
C         2.69519554877693   -3.49152188752309    5.24521083439465
H         1.70695104336615   -3.90399299317121    5.43933829201542
H         3.09742620991293   -3.10446371491179    6.18153420986543
H         3.35506437199239   -4.28684163568472    4.90580622789137
C         3.55769051730561   -0.25664495819434    1.37410489016160
H         2.73200035084363    0.24546809444558    0.85792850735062
H         4.08856291275476   -0.91028596137101    0.68562746339847
H         4.24634962007322    0.50711348570872    1.73130644106243

