68
CSD_code = KIGSEB | q = 0 | S = 0 | Stoichiometry = C29H33ClN2O2Os | MND = 9
Os       -3.60685479665829    3.99451749862234    9.28687095690480
Cl       -3.55123731845276    2.09771433911488    8.04151053434630
O         0.76314923283244    2.06827358304541   12.70957513104933
O         0.35389084825767    0.43137455734013   14.18687638129885
N        -4.06918925351975    2.86974567899268   10.85896718149938
N        -5.47053682296569    1.67297713040040   12.12162549492264
C        -1.76180809018870    5.27133534204117    7.65107444078747
C        -2.91588493248496    5.99052790831437    7.91973952820560
H        -3.47080705942956    6.44284695851525    7.10606321024889
C        -3.38363210740654    6.15127602577874    9.25484430699860
H        -4.19972012611586    6.84254183292405    9.43768204341720
C        -2.57919399112653    5.68812246172879   10.34652250648502
C        -1.31308384297319    5.12451560520932   10.03776960930645
H        -0.63275536792127    4.89246688484208   10.84689179742077
C        -0.94501663107954    4.86148217157767    8.73930961734512
H         0.00048201383043    4.38263383800834    8.52849643470764
C        -1.31416185478369    4.99194642973804    6.24979097636522
H        -1.46700300019188    3.93590854327682    6.02163254556236
H        -0.25323551608300    5.20926581556915    6.13248325623042
H        -1.88077243900492    5.58065775323577    5.53161095894104
C        -2.84980111449021    6.11343527555433   11.77627314254697
H        -2.37763625926055    5.37786308950081   12.43905320818842
C        -4.33934106626433    6.17227892006414   12.11639937486287
H        -4.81950017239797    7.01746681218330   11.62991428156576
H        -4.46852881492069    6.28538689956554   13.19042737342541
H        -4.84103810758676    5.26055324188596   11.79473870078380
C        -2.19200688811967    7.47612059308973   12.02485227933813
H        -2.62216254347620    8.22858659714196   11.36675874218335
H        -1.12158649520747    7.42774056736474   11.83724816500163
H        -2.34833553411548    7.78806174099572   13.05489896217658
C        -5.35922797077614    2.54792452407443   11.07227658530558
C        -4.20641544927819    1.43099625242405   12.58843685715121
C        -3.72201953657301    0.63032864656082   13.61799103277927
H        -4.38113796927984    0.04550947325878   14.23970246476829
C        -2.36109038582830    0.60234064242269   13.83060838126417
H        -1.95291038007307   -0.00435489532837   14.62262727871296
C        -1.48031255693635    1.35170121204560   13.03556088877198
C        -1.95583906374677    2.14591662151694   11.99844200637186
H        -1.26279684132127    2.69375786286650   11.38179441420412
C        -3.32133202187338    2.18683599486924   11.78035682012376
C        -6.68329903786506    1.14600167194770   12.69228363932563
H        -6.42372630622050    0.25759566362728   13.26978410876850
H        -7.34448726259296    0.83633978713563   11.87980222033488
C        -7.38096435585554    2.17871197836436   13.58659047440996
H        -7.47737532098972    3.10909082242091   13.02418783704719
H        -8.38444443469222    1.81854086647972   13.82043732264663
C        -6.62597293159081    2.45546140053468   14.88804276686700
H        -5.56599846929505    2.60044074461723   14.67015488727613
H        -7.00201385472661    3.38650494558210   15.31651026564517
C        -6.79577860022587    1.34451606614550   15.91794682183107
H        -6.43989155172211    0.39013525745161   15.53840778077201
H        -7.84420989332266    1.23231885337896   16.18568490063440
H        -6.23556999070845    1.57770811766754   16.81996635269932
C        -0.02274725551471    1.33981398616376   13.26982972195737
C         1.74493795422715    0.36806055412514   14.45470165600782
H         2.29977563808400    0.16244942206733   13.53679947397158
H         1.88102334453042   -0.43706848129681   15.17227362890826
H         2.09592847095779    1.31544530113116   14.87008574745129
C        -6.29409138675808    3.19048061605908   10.19455232210036
C        -7.69032389455420    3.09778252557296   10.19195824317123
H        -8.21107256566579    2.47126883342384   10.89822899576939
C        -8.42307384172314    3.81048529436866    9.26940487942469
H        -9.50055690075661    3.73591506382833    9.26561864266846
C        -7.78055906894679    4.61832017191622    8.33766520890602
H        -8.36502821861392    5.16651814924907    7.61240167536651
C        -6.40245250337332    4.71427235596112    8.33064562239793
H        -5.92648970994683    5.33633365114488    7.58453313299923
C        -5.62104782521776    4.01777595055476    9.24700379907094

