59
CSD_code = KIGTOK | q = 0 | S = 0 | Stoichiometry = C20H33BFeO2Si2 | MND = 8
Fe        5.68519616723447    7.68746829029595   11.45334507190322
O         3.90442590176407    8.57047550341059    9.37907844365548
C         4.61102188854986    8.29566332286161   10.24625063472800
O         3.72429541212051    5.67358965684993   10.92958841380813
C         4.16763935822997    6.53346600674278   11.62322945273449
C         6.98179190049394    6.75834298277545   10.14705550242551
C         6.99046615278003    6.01905272409570   11.35657446485130
C         7.41621824832009    6.90155605842354   12.38114668067259
C         7.83255690891246    8.13179048268196   11.77829481623625
C         7.55412794997363    8.05238997785239   10.40629524731917
C         6.58390840227150    6.21749063206988    8.81363675054870
H         7.36214409948042    5.57446664341684    8.40102744681858
H         6.39412244730477    7.02513036304723    8.11321109437194
H         5.67334298568722    5.63180867406239    8.91494692849549
C         6.61236234007528    4.58376304153598   11.48867713027562
H         7.41751966372913    3.94524461244806   11.12274014206518
H         5.72139311693952    4.36965173521869   10.90192326810044
H         6.41030229259242    4.32529450053382   12.52464864602058
C         7.66020212620918    6.53499801428583   13.80711630907690
H         8.69577703449423    6.22347326431076   13.95373733673622
H         7.00894008907339    5.71995056352667   14.10960192289239
H         7.46424768675255    7.38226359143430   14.45980708031996
C         8.49281213492522    9.25199933658885   12.50786864167372
H         9.56836159866932    9.07892584266187   12.58077453910973
H         8.09437083322169    9.33255241103659   13.51481639417935
H         8.33399931442428   10.19895787829628   12.00001658713004
C         7.88664671613549    9.05345429948852    9.34560830028945
H         8.70441328238526    8.68268712389569    8.72574362279336
H         8.19477288399415   10.00065262152510    9.77981006266747
H         7.02966409475634    9.23105409813912    8.69927200758573
B         4.33267130671140    7.26560584538005   12.88619856873899
C         4.97495108041970    8.68482784392518   13.20113303157456
Si        4.98812308669844   10.55476821624342   13.05940193620502
C         5.40096630278085   11.01869151571438   11.26666651203416
H         6.05956359390588   10.27239749220965   10.83801713857084
H         5.87467725346747   11.99166955318950   11.18905823306834
H         4.50701438688484   11.04155209152529   10.65501726288554
C         6.22848486926873   11.39453899067772   14.25011371229546
H         6.53834830020088   10.73032876943186   15.04846971271437
H         5.78520058519030   12.27242391148000   14.71145693055619
H         7.12221516011885   11.71982936874396   13.72749506759277
C         3.21214256856185   11.09886813046980   13.51362470276369
H         2.98795342567043   10.89243822597989   14.55530900408255
H         2.48167598328579   10.57022211997199   12.90946819440674
H         3.06899535068462   12.16249657028185   13.34932107952565
C         4.77196492770001    7.78343556260328   14.20994622612027
Si        4.66367102006977    7.62958809909695   16.07461200336073
C         2.87382375870496    8.05634072355574   16.58208372811978
H         2.62425343262682    9.08231708737973   16.32982586619968
H         2.72555218088210    7.93496026365372   17.65108923864462
H         2.16193506219449    7.41294447894619   16.07489426448265
C         5.05784210340153    5.82147585100928   16.54546215952016
H         6.11891093607825    5.60495669884721   16.46573842682343
H         4.52915457994644    5.12536711037496   15.90163624353165
H         4.76116421965508    5.61062244212391   17.56894627152014
C         5.87970807682324    8.78525374689759   16.98733686853755
H         6.88670644537585    8.71594287844668   16.58583108223307
H         5.93655734971626    8.52564531868374   18.04087935131745
H         5.56542962145636    9.82227683960601   16.92472424312069

