34
CSD_code = KIGXED | q = 0 | S = 0 | Stoichiometry = C15H14NiS4 | MND = 4
Ni        1.86449603336810    1.30420807366547   13.46477547743577
S         0.05707394483919    0.13405103847098   13.74110930494745
S         1.13663891076022    2.08168752732738   11.48986395379707
S         3.82246130488287    2.33278702317520   13.07632878116654
S         2.60443810572007    0.45861017213749   15.32257921035069
C        -0.46852260389865    1.32235525886154   11.31827522580850
C        -1.24573768817580    1.59830267126876   10.20678567294144
C        -2.48441531307691    0.99869454126421   10.08133945452854
C        -2.93345444344914    0.13558725510563   11.07519937866823
C        -2.16102246101427   -0.12918469300792   12.18470448665283
C        -0.90561845158673    0.47062739448611   12.33007736509542
C         4.82918337264240    1.82357110048626   14.45800825613984
C         6.13803797760770    2.26347871745093   14.55420739187739
C         6.91210707289861    1.85632030228090   15.62396218418072
C         6.36273823539169    1.02027823362138   16.59028991072787
C         5.05665366272422    0.59266964354717   16.49643549415119
C         4.25728888207313    0.99567463565654   15.42133405996580
C         2.12565615200627    0.82022653759240   10.56446435997687
C         3.60600711066411    1.17182478557541   10.54379003855835
C         4.29229644341152    0.99027270176897   11.89001261077998
H        -0.87643603977052    2.27892585532643    9.45387074684916
H        -3.09900311630991    1.20411787232608    9.21893733021865
H        -3.90268808546341   -0.33057875450027   10.97932031982119
H        -2.50721331515261   -0.79339501915348   12.96081592668320
H         6.53714049628947    2.91884869024711   13.79408897880190
H         7.93474824312017    2.18920023998544   15.70832491886375
H         6.96624330765626    0.70427491616942   17.42806170134659
H         4.62446980183981   -0.05145747558167   17.24589202919303
H         1.71853966084519    0.80904145025245    9.55321609110744
H         1.95517127813409   -0.15327848723985   11.03430144192302
H         3.73270362365763    2.20381090437468   10.20580507292825
H         4.09864021868874    0.51613538355392    9.82016200293067
H         4.03193394336280    0.02755303593017   12.34334015650873
H         5.37514373529886    1.05715846756241   11.78342066508532

