69
CSD_code = KIGXII | q = 0 | S = 0 | Stoichiometry = C31H34AuN2P | MND = 3
C         1.26377682962178    1.79910055375061   11.92231606890024
C         1.08537578574603    1.13345643432503   13.15370814607416
H         0.51713193604075    1.69626852133187   13.88408198474107
C         1.47549596080658   -0.11852771726881   13.57917387273353
H         1.14915030351121   -0.38789647246407   14.57854516992850
C         2.30055351549019   -1.03417014961169   12.94914437983781
H         2.60557595356344   -1.89983037705799   13.52285186930738
C         2.77854784005472   -0.93919516500113   11.64919792992535
H         3.48922980236436   -1.70371215055259   11.35199028062143
C         2.40777462730340   -0.06311147725829   10.65759880999143
H         2.86771649311273   -0.24825769127927    9.69401394114870
C         1.54305297889186    1.05889662539758   10.67437432113715
C         0.97600034210450    3.99562570585202   12.89188832125896
H         1.39466503282164    3.54553760942595   13.80347784616171
C         1.78747902845924    5.25740884433463   12.59174763758265
H         2.83743563119791    5.00274037785822   12.46837515252698
H         1.69202262455312    5.97530269256441   13.40314857552446
H         1.44030945668549    5.71472223548473   11.66598776728845
C        -0.49482081230546    4.34639446718900   13.13445406988104
H        -0.92707406755524    4.75721495572603   12.22320303255733
H        -0.58953654585998    5.07588682441386   13.93584843637475
H        -1.05910407785976    3.45531468280750   13.39987528523875
C         1.08478676129511    0.96865053218139    8.29885617327627
H         1.30465870571585   -0.10601135289977    8.37808132180303
C        -0.28573016987892    1.11904258986529    7.63723968863730
H        -1.04423331838487    0.61866535467712    8.23418589086964
H        -0.27817635840432    0.68825321199096    6.63851376636350
H        -0.54461280672215    2.17371196975318    7.56540747118937
C         2.15945703192972    1.64244580977359    7.44092904092369
H         2.19175008224805    1.19904627096173    6.44822064252588
H         3.13782334226827    1.54235760260511    7.90636608740027
H         1.93184761369591    2.70448849463815    7.34468837650024
C        -0.28192203816491    4.91582742937950    6.65772080398344
C        -1.57173850132919    4.40693507434360    6.50757413651849
H        -2.26002223151980    4.45704287867682    7.34251189479464
C        -1.96106640056928    3.84807518789165    5.30643261947789
H        -2.96308708968582    3.46204155839819    5.19081990333502
C        -1.06018249767808    3.77200282974036    4.25488329112433
H        -1.36295177587055    3.33009121604500    3.31730077191105
C         0.22946030167182    4.25227247045577    4.40895098052625
H         0.93377133194423    4.18191888788396    3.59298980841696
C         0.62455744444086    4.81844224490561    5.60822066919393
H         1.63411614884994    5.18668516096333    5.73125798480098
C         1.69700362967659    6.45872725978902    8.00548499551866
C         2.90483430907608    6.01345046809038    8.52956823503464
H         2.92198626776341    5.09886566265432    9.10996700482667
C         4.06288047411427    6.73759694174909    8.30878716090603
H         5.00098810328876    6.38969948725624    8.71503056883589
C         4.01574953348421    7.90840776827824    7.57029470760134
H         4.91884013322207    8.47554374065085    7.39990952172122
C         2.81071573179518    8.35695500046061    7.05086415680160
H         2.77679837686250    9.27151197270880    6.47699895607517
C         1.65064820034782    7.63738374839147    7.26594968522976
H         0.70868783065108    7.98439084851153    6.86400152763523
C        -1.01737649011790    6.75994315156544    8.70078711207492
C        -1.81375698890083    7.38837678257811    7.74885914804816
H        -1.75408972334409    7.09533487283222    6.70948946929734
C        -2.69076779247386    8.38473512781980    8.13858694509066
H        -3.30982506318553    8.87109444969661    7.39869775037039
C        -2.77789928957645    8.76014988520837    9.46940282909530
H        -3.46621922861226    9.53766129605215    9.76568494692351
C        -1.98610755428525    8.13601764531751   10.41992442907427
H        -2.05469575960571    8.42454039902388   11.45833683720604
C        -1.11053213625332    7.13805488618812   10.03659360659079
H        -0.49114130645202    6.63631442882424   10.76870309211110
N         1.09971353833528    3.09479617179294   11.77218417406128
N         1.02601284686374    1.58995564425398    9.59685029194327
P         0.20702299857803    5.46726329223705    8.31482588692583
Au        0.58416514410887    3.78427431577057    9.75556273870015

