83
CSD_code = KIGXOO | q = 0 | S = 0 | Stoichiometry = C37H42AuN2P | MND = 3
C         7.77468617512943    5.96165811634602    3.37969467643706
C         8.56451943997648    5.13637704365786    2.55081582574297
H         9.15843615490023    4.40812646408565    3.08888278872692
C         8.69326454022748    5.06850684991184    1.17998754262337
H         9.35253706097562    4.28617977954026    0.81768784722023
C         8.17239370142927    5.90983026979970    0.21212227532557
H         8.51156457407948    5.76166193248820   -0.80501019015486
C         7.25888041933859    6.93187729151308    0.42944899959547
H         7.02497602032488    7.54441788539699   -0.43555209057327
C         6.54367080702226    7.22455213685445    1.56596853437616
H         5.82812583393635    8.02904760058077    1.45018578333176
C         6.58400026214932    6.67484932382046    2.87136997066621
C         9.17381371827202    5.59162293306506    5.32054700242264
H        10.00178103604907    5.49992546250571    4.60352272266572
C         9.60116588579159    6.59276546894717    6.39894361365499
H         8.76755405716452    6.73278303296664    7.09429844495685
H         9.80421352769159    7.55669842057644    5.92800055214218
C        10.82938629313651    6.10130914097352    7.15606593794392
H        11.67120989099667    6.01187888597001    6.46515140017912
H        11.10271963742463    6.82849562009845    7.92446634428257
C        10.55389645263204    4.74530703327417    7.79701412089239
H         9.75174910123427    4.85323136510275    8.53029832334556
H        11.44486513423049    4.39060560390880    8.32078828581747
C        10.13621721866612    3.73332986742499    6.73515634870555
H        10.96208999151126    3.58276331051084    6.03542398950533
H         9.91558334516286    2.77016907039302    7.20223989463187
C         8.91239864532855    4.22760069805781    5.97200236108441
H         8.62632746777858    3.50373805991757    5.20563514324588
H         8.06233849894629    4.33631898761280    6.65252007749862
C         4.36573368340906    7.45877690254687    3.43536839465820
H         4.11122556489557    7.32680468017439    2.37296505005574
C         3.26700694738871    6.78941955444309    4.26648873624881
H         3.52190309740725    6.89467745219130    5.32676559407773
H         3.23879427375741    5.72330790570943    4.03120244096866
C         1.90971730678638    7.42892891067704    4.00121941640173
H         1.64228831962588    7.29068428474174    2.95068787323936
H         1.14537393469564    6.93780310948845    4.60842238316175
C         1.95103283282315    8.91914948399641    4.32283392671254
H         0.98178056806277    9.37550274381616    4.10769470854663
H         2.15673291767469    9.05240717095404    5.38742236435579
C         3.04283282635873    9.60711142861413    3.51023366437468
H         3.08775984062286   10.66736419476967    3.77104604903892
H         2.80353240050961    9.53377720723320    2.44629578533034
C         4.39625086282220    8.95612775141315    3.77030545547408
H         5.17432767235492    9.44949599817890    3.18374933210721
H         4.66219311367812    9.06080810178676    4.82599194451479
C         4.17186707413715    8.41057673749912    7.89457668819237
C         2.81688742887179    8.37788755575465    8.19892324057221
H         2.34774218150019    7.44931197497370    8.49254604931278
C         2.06834484689418    9.54012126632994    8.11677405456298
H         1.01439726301844    9.51426084951291    8.35220591120375
C         2.66149848949007   10.72922820256033    7.72620817582641
H         2.07041719118122   11.63045482467381    7.66065039979961
C         4.01011212253157   10.76102210929627    7.40410293214798
H         4.47016909776720   11.68465885870431    7.08521920055618
C         4.76088142930996    9.60427651268030    7.47853353444127
H         5.81156286031770    9.60601468222146    7.21222124706639
C         4.17857584077381    5.59117731867774    8.41210197565827
C         3.71571190203418    5.51005896414716    9.72346037604267
H         4.00235504318632    6.26691133238674   10.44169208340708
C         2.89599368214737    4.46169730011701   10.09618329525885
H         2.53467023462941    4.39693823302578   11.11220146294750
C         2.53758637546751    3.49427856081641    9.16925638173803
H         1.89652091549131    2.67745144039211    9.46620281450046
C         3.00324497285879    3.57000368345753    7.86682331282466
H         2.72792546893102    2.81255254901254    7.14805882133157
C         3.82627395889839    4.61547067277881    7.48709060434518
H         4.20767445304596    4.68588908796720    6.47624657907968
C         6.31295013366439    7.16986006018054    9.32289648278592
C         6.37113992314508    8.31973995392174   10.09995472305292
H         5.71771485508225    9.15463658374141    9.88748520774628
C         7.26640955670524    8.38867326412656   11.15421296288587
H         7.30983267950531    9.28224509701180   11.75995561161352
C         8.10135504813935    7.32069283418422   11.43506997014231
H         8.79674145461481    7.38146041857640   12.25898003594538
C         8.04825715767378    6.17293367518161   10.65800006486111
H         8.70055729975805    5.34044105007158   10.87846792143601
C         7.16351311036571    6.10104405535702    9.60112970968234
H         7.11278013491866    5.21631550381039    8.97729795497246
N         7.98437869506380    6.08591551879245    4.67309590220786
N         5.62798827673072    6.84257535475545    3.74933742592439
P         5.24735362475227    6.94978059217027    7.86414415983905
Au        6.27896416269504    6.63876878542717    5.90012308056916

