101
CSD_code = KIHDOV | q = 0 | S = 0 | Stoichiometry = C39H56NNiO2PS | MND = 4
Ni        2.30908506982095    2.97052717389531    3.03171238209780
S         0.13381006565722    3.60852251288917    2.38531110034401
P         3.00081410509832    1.38241380540099    4.36135475366208
O         0.40049168233695    2.25551023426917    2.90389342198889
O        -0.93851096238776    3.71310103562567    1.43207019616295
N         1.50679387619844    4.28748687760430    1.96203508314298
C         3.92509386828913    3.83398929982155    2.61535130406767
C         4.40552161282589    3.77069215605086    1.36705273925649
C         3.69909518285598    3.02308886436039    0.29473828894070
C         2.46309041010438    3.37042813394907   -0.08408086907522
C         1.77001608167620    4.55717740931733    0.57318653206165
C         4.63041157582505    4.66804060046661    3.66306815266209
C         5.70521847142450    4.42927435234744    0.96775116255773
C         4.49180032671865    1.92819388258496   -0.37695651074303
C         1.65395136240948    2.66612723703608   -1.13034475827701
C         2.57343666037538    5.83125894916212    0.41455841823198
C         3.22584373060431    6.10258274575221   -0.78167617103865
C         3.94798048138802    7.27145174163579   -0.94034063237147
C         4.02701200242608    8.18805526137122    0.09433918189073
C         3.37043149791373    7.92981150838462    1.28541468331081
C         2.64469559865008    6.76254018248764    1.44145041389086
C        -0.30231991698827    4.54448163370777    3.85776338185755
C        -1.61549325351631    4.87929484948384    4.12222315449565
C        -1.92187808472081    5.57097499960981    5.28369989669968
C        -0.91317081315495    5.92283383591853    6.16628589454260
C         0.40477693169186    5.58680464043299    5.89350567866422
C         0.70871015670833    4.89208470617827    4.73523743228135
C         2.23125793689323    1.29186723349402    6.06293697259962
C         2.72297810669384    2.48526355027366    6.88598014585092
C         2.08782208801316    2.50905001350071    8.27372909750732
C         0.56803902380916    2.54729171556556    8.16459705955089
C         0.07842448158700    1.34102812984842    7.37269134209414
C         0.70505392728536    1.31748716139838    5.98124569442497
C         2.35553298390574   -0.14741791806548    3.52047868734447
C         2.74848861562478   -1.52286265631677    4.04792856794560
C         1.92724403004949   -2.58657997878968    3.31735745530964
C         2.15235325394114   -2.50252860404772    1.80937165790434
C         1.81020607409256   -1.10947634595054    1.28375809844568
C         2.63382365281605   -0.05733305381243    2.01871095354398
C         4.82028916691269    1.16630068537623    4.74756414088963
C         5.61005864386740    0.90762556856572    3.46566436400975
C         7.10501971322473    1.06475581860621    3.72898892515274
C         7.54930496698323    0.08779719374856    4.81382844056855
C         6.73721251370239    0.30030376839889    6.08758597986077
C         5.23825659711296    0.15693813039534    5.81642359436386
H         4.19491847920424    4.54605974753571    4.65397629975733
H         5.68309098234665    4.38799137370121    3.71510664741295
H         4.57322659059381    5.72030230633950    3.38187471791975
H         6.53773498042986    4.04122974111781    1.55483826169333
H         5.64171282094892    5.50214566764627    1.14079711030860
H         5.91014938221689    4.26386688528412   -0.08520008435191
H         5.41746062864954    1.74873545709733    0.16279189951614
H         3.93001077508007    0.99780253356245   -0.41023821504872
H         4.73737323571609    2.20701224194043   -1.40194120800004
H         2.11271076923469    1.73406143699738   -1.44803050177040
H         0.65973943880414    2.45493926665565   -0.73396203250977
H         1.52811610300531    3.30692823836701   -2.00462668885634
H         0.79423489956759    4.70874726705922    0.08436121783706
H         3.17347724186523    5.39093732614271   -1.59245169879179
H         4.45271740943326    7.46865425536411   -1.87547352439725
H         4.59444150339593    9.09936150143699   -0.02855371947380
H         3.42221873856250    8.64354826912683    2.09591190533372
H         2.12863895145059    6.55397791696117    2.36649787458748
H        -2.37543640620472    4.59557771492279    3.41049280758080
H        -2.94618711413271    5.83587006162190    5.50001147606928
H        -1.15366483512919    6.46152181915738    7.07124069220264
H         1.18893445923222    5.86908678609883    6.58159327288411
H         1.73993336168061    4.61837857721904    4.48448909736137
H         2.54264524755185    0.35697884577761    6.54367042546355
H         3.80940323703519    2.45670036720333    6.98711424051732
H         2.45892288786265    3.40184250477808    6.35347315952158
H         2.38835264251087    1.61562183503310    8.82735853278429
H         2.44715768885381    3.37938446799821    8.82724475226492
H         0.12054326511860    2.54956289006752    9.16085518117881
H         0.26078222892778    3.46258069339801    7.65393257714189
H         0.34432837714364    0.42502118720949    7.90773661215803
H        -1.00931212679753    1.37094375342379    7.28189264737119
H         0.34044268691422    0.44004461482922    5.44566973478483
H         0.38662945472304    2.20015962733394    5.42278248102207
H         1.27052819553487   -0.02874804499387    3.63265948680372
H         2.57084514036485   -1.59507415941866    5.12298027603145
H         3.80744800544971   -1.70856587853468    3.86045862805920
H         2.20253670067091   -3.58064467937173    3.67810246974247
H         0.86712944422011   -2.43527082478635    3.53285607059072
H         3.20011921959919   -2.72304326489313    1.58904763482229
H         1.54155371981839   -3.25321914418376    1.30340972948184
H         0.74797575111024   -0.90927724707227    1.43765266121201
H         2.00641306906770   -1.06189015350498    0.21005797661667
H         2.37130712468169    0.95456146885632    1.67058190560481
H         3.69249507965373   -0.22047056571017    1.81438655264847
H         5.10970282585808    2.16441459524442    5.10083756039675
H         5.42640503868489   -0.11008336080320    3.11950715461269
H         5.27537550537499    1.60673250843046    2.69632937161159
H         7.31303395148465    2.08699835929758    4.05141333509422
H         7.66749589218735    0.88200223633991    2.81118615922800
H         8.61222739237483    0.21925961089101    5.02598818870433
H         7.40465561588363   -0.93544096774024    4.45965325663763
H         6.93791614951630    1.30019191752879    6.47934233672004
H         7.04325037649722   -0.42303774893885    6.84661515059350
H         4.69793368192306    0.32019952651784    6.74859589284762
H         5.03393063759475   -0.85913040344160    5.48165676183218

