51
CSD_code = KIHFUD | q = 0 | S = 0 | Stoichiometry = C26H20Cl2N2Ru | MND = 9
Ru        2.71207867363688   12.14506654866428    5.78090023686407
Cl        1.85445487507640   14.25612779989812    6.34675283526682
Cl        3.47562394753462   13.17034390615439    3.81527801827935
N         4.26656779334034   13.04546177457201    8.11077489705517
N         5.58402143744199   12.95678814977197    6.37833700079789
C         4.31270552779056   12.74409205050629    6.78645312564574
C         5.50230619104591   13.49085932099953    8.53833451920565
C         6.35093277965618   13.42758509277707    7.42434924249830
C         7.69144309673199   13.76901277920258    7.51766082777693
C         8.14839595460623   14.18958929503290    8.75271090024951
C         7.30428003430143   14.25580706474999    9.85995711156610
C         5.97028254580947   13.90205210480772    9.77702712035415
C         3.13113555273828   13.07113257925923    8.96130130116122
C         2.77816104647207   14.29700517993062    9.51513516392323
C         1.72859689944204   14.38768918900917   10.40721427766626
C         1.03295575770541   13.24578246950694   10.76650273647629
C         1.38302689084673   12.02731109551159   10.21651502747832
C         2.43150982693723   11.91381744423014    9.31013958239813
C         6.11442844302020   12.70051074983721    5.09080535955763
C         6.71309486121924   13.72656996314605    4.37390542280878
C         7.25611806689061   13.45991279864530    3.13074282918169
C         7.21130667274112   12.17801379759512    2.60970394598311
C         6.62533249564037   11.15496032264661    3.33517395869089
C         6.08279752961884   11.41004840785602    4.58063883982889
C         3.02055805346055    9.93103031568472    6.22440352069473
C         2.61171433128049   10.00847879106768    4.88868281485848
C         1.38351663609865   10.64404479162073    4.55342416274991
C         0.58670916086534   11.18755511831700    5.55429193317288
C         1.04270387313919   11.18925531729383    6.89942385436089
C         2.25694149968450   10.56622714933732    7.25046749736030
C         2.73806831225168   10.57733257541429    8.68364259757439
H         8.34422405946415   13.70643174478336    6.66162993728027
H         9.18423373376359   14.47065978056709    8.86454869255422
H         7.70394585451466   14.58818315953838   10.80565657219958
H         5.31863487323696   13.94469314101978   10.63546620347040
H         3.31976341123849   15.17898137413646    9.21173239454377
H         1.45112793625053   15.34692567816315   10.81513737685941
H         0.21218367162216   13.30384683292942   11.46524890756064
H         0.83355946342354   11.13819842699601   10.49347184615605
H         6.71641636960518   14.72778259574307    4.77642484127114
H         7.70610498043210   14.25976642819621    2.56258865014928
H         7.62727157357159   11.97687939301489    1.63402019205520
H         6.58979447478752   10.15481351602262    2.92926776494088
H         5.62965108745326   10.61987906004942    5.16117571652343
H         3.90163413277049    9.35616756361648    6.49509669050795
H         3.19125719825203    9.52491267670380    4.11142036266074
H         1.05404134920175   10.65106521013638    3.52127399659140
H        -0.37805280096852   11.61961032580351    5.31755121009799
H         0.41648097701413   11.62198269031898    7.67137312981841
H         2.23734879743982    9.78489088619255    9.24897138305999
H         3.81471008990298   10.38186557302306    8.70759347020782

