73
CSD_code = KIHFEN | q = 0 | S = 0 | Stoichiometry = C36H34O2Zn | MND = 5
Zn        2.94029182899963   -4.03148546971175    4.41341964517802
C         5.30963557528210   -4.03858154785099    2.18219537007109
C         6.52975406534222   -3.48060562725986    2.50565824156130
H         6.56150366470985   -2.48589594443484    2.92750967672133
C         7.73192538060967   -4.13222566802225    2.21691355614443
H         8.66911098537572   -3.66925189539544    2.49153959960941
C         7.71332382165174   -5.30663716116682    1.51913253489986
H         8.63417700103773   -5.77758036496483    1.20585146736327
C         6.47401527683769   -7.09859551275391    0.40147536594714
H         7.41386068681684   -7.51235314928375    0.06483374104487
C         5.28762996637890   -7.69258611339264    0.07538768691657
H         5.26555830210437   -8.57145141901971   -0.55271625918143
C         4.09732462781965   -7.21112459641123    0.62578043623045
H         3.18161414251187   -7.76169071230997    0.46589746536586
C         4.06468867246598   -6.08976099159966    1.43272307523664
C         5.26505201548893   -5.34418605220710    1.61377433147219
C         6.49089551581012   -5.92247965059840    1.17834660460493
C         3.78065478678359   -2.38559754913976    3.45733807717958
H         4.57988171339442   -1.92152620225715    4.02554672182608
C         4.11663850729830   -3.20288398721380    2.28126785300650
C         3.18613970925388   -3.00206925054166    1.30167032536492
H         3.16380637216436   -3.49001820551760    0.34361584859226
C         1.21128691791070   -1.36739297484292    1.07549543544034
H         0.90546179595529   -1.69419056436354    0.09190625181240
C         0.56447480817439   -0.32384966178854    1.70465495969106
H        -0.26099456344797    0.17241127548471    1.21360084328082
C         0.96795338216129    0.11573666839889    2.96604572339682
H         0.45524172676307    0.95074641905961    3.42380518438028
C         2.01196269255960   -0.49756104148472    3.63262348530777
H         2.31503632908731   -0.15477573401231    4.61375206946172
C         2.66545223493554   -1.55818914735316    3.01987173744528
C         2.28074875312249   -1.98196240377764    1.72163128334632
C         2.78319199416866   -5.95813637434439    3.66228583612311
H         3.54123489476143   -6.59175487227996    4.11967634348064
C         2.82269376959364   -5.89744255189449    2.18798522722805
C         1.55475120474565   -5.99855692073511    1.69111165786772
H         1.27809066583748   -5.94402527578714    0.65293931507444
C        -0.73969672191228   -6.41601971564614    2.78307349377414
H        -1.31615094280919   -6.35515573039733    1.87065258815497
C        -1.34892806581162   -6.72353493623351    3.98269671293199
H        -2.41476170948105   -6.90404222157919    4.01319875404215
C        -0.60736570409421   -6.82408039302184    5.15922879813267
H        -1.10859458857435   -7.09134006177409    6.07984004024786
C         0.75528308530288   -6.58969026757665    5.16234638868747
H         1.32506598424106   -6.66427913099764    6.08128831026216
C         1.38166625690035   -6.26673743738832    3.96814494382686
C         0.63798578871461   -6.20781283246927    2.76391658071747
O         0.89220316329056   -3.32733366943734    5.05050184730172
C        -0.21551721351420   -3.11570338965146    4.16443519834825
H        -0.18124393329393   -3.87043302851230    3.37744911136193
H        -0.11136540205237   -2.12187979120894    3.71617732226581
C        -1.47035539428207   -3.20497545145150    5.02520184546897
H        -2.28567576625779   -2.61136362120907    4.61980987460680
H        -1.79019212750352   -4.24332345284163    5.11568746042269
C        -0.95797090136725   -2.68729509846701    6.36623329449159
H        -1.56631470760813   -3.00265503780536    7.21031845586954
H        -0.89922681942053   -1.59835777097269    6.35269773058473
C         0.43982782124834   -3.29479155480017    6.40261403882367
H         1.15524629650448   -2.71392767991097    6.98964251222845
H         0.40771033492302   -4.32006774279907    6.79109907829718
O         3.93493122091860   -4.21114406019261    6.65215832577632
C         4.67281872808950   -5.40305152201544    6.86943269816733
H         4.13801529250367   -6.22880712815312    6.40519983706492
H         4.75394468063821   -5.58157729335485    7.95104022703507
C         6.05146943879438   -5.12919940705477    6.26074523894374
H         6.83268801586977   -5.70084352520464    6.75576118785616
H         6.05021996397971   -5.38129618521626    5.20001672313401
C         6.21313555493781   -3.61068004260953    6.45098567241859
H         6.44069807573161   -3.12900688531280    5.50241201394925
H         7.00131463047918   -3.36690075270823    7.16045379505290
C         4.83878903052901   -3.16722745399693    6.98233712365845
H         4.86544127132883   -3.05510260353923    8.07524543030559
H         4.46903613863398   -2.24533289366567    6.53661062734197

