49
CSD_code = KIHGAJ | q = 1 | S = 0 | Stoichiometry = C15H26N5O2Zn(1+) | MND = 6
Zn        2.42988781632128    3.86841051244964    0.93774370259197
N         0.41190047614543    3.80137693632256    0.22629325465415
C         0.36462694740454    4.96970186884302   -0.66424566165643
C         1.66232635741955    5.05436691416733   -1.46083079497776
N         2.79659575695762    4.98852316807018   -0.54935751842055
C         3.98674817332529    4.91310342797750   -1.16268537256852
C         5.19907978290420    4.84048414180394   -0.21027989436389
C         5.18562661918908    3.59043209355400    0.68779922017546
N         4.31038630608461    3.82366349720564    1.83508878827280
C         4.30560129424810    2.77508398871676    2.85462762972436
C         2.96465429050909    2.82290712166971    3.58401020536064
N         1.88492491713917    2.64948685831704    2.60987536847956
C         0.55368741981412    2.82016168299589    3.19859361911032
C        -0.55635372884915    2.60395999272494    2.17169502656655
C        -0.70859366203045    3.74557959631466    1.16816975470815
O         4.15973604780355    4.90858396289514   -2.36928923085356
C         4.66195609875218    2.45451773653237   -0.15262512353371
N         3.36022775114655    2.18321053175291   -0.05990484830424
C         2.84902753235130    1.24840907634945   -0.85728260452704
C         3.59705382837139    0.55268582642162   -1.78638339857260
C         4.95195343421847    0.83550278858820   -1.88652256682254
C         5.49263556941511    1.79422806466241   -1.04875671895608
O         2.15613087272548    5.81340971873468    2.19837939124295
H         0.34837792838410    2.97976810210060   -0.37395483876090
H        -0.49204104126401    4.92317910986861   -1.34542502799188
H         0.26417702383067    5.86284975884032   -0.04358836934989
H         1.69388776714234    5.99075957335554   -2.02710857229532
H         1.71945490378468    4.23507474546322   -2.19066571687277
H         6.08390108532446    4.82434219445416   -0.84676554574467
H         5.23582351811383    5.74068700613683    0.40545546880107
H         6.21143430806532    3.36302449150074    1.01633272672477
H         4.58181820417600    4.70111587480772    2.27046254772105
H         4.41513879181967    1.80657338687789    2.36108144720466
H         5.12634644481057    2.89054709793455    3.57060615321959
H         2.84328715031400    3.80314278614972    4.04982033035696
H         2.93400358977972    2.05572865380245    4.36639286165364
H         1.93953501087554    1.68895961575425    2.27359166756766
H         0.41335508627501    2.11499374160863    4.02876645504584
H         0.49050411964411    3.83183403478398    3.60421557907216
H        -1.49912081850855    2.50515757369578    2.71088476048233
H        -0.38433911125214    1.66610461118375    1.63896247443561
H        -0.74814385519332    4.69540692475987    1.70696521667435
H        -1.65895798211737    3.62852573704220    0.63053480456881
H         1.79199685147721    1.04979653161323   -0.73835477095559
H         3.13243656900169   -0.18614961093797   -2.41847938794557
H         5.57131550570866    0.32193086195223   -2.60467323204712
H         6.54031592614549    2.04453892362884   -1.09609618836726
H         2.49473966331632    6.44377897379455    1.55230777813599
H         1.33643345898006    6.18393979275946    2.53661915133556

