30
CSD_code = KIHHOY | q = 0 | S = 0 | Stoichiometry = C14H11BCrO3 | MND = 10
Cr        1.37315646431931    1.11323897058444    2.37512405513589
C         0.63213048334167   -0.11860534596102    1.24800403396497
O         0.13835925820780   -0.81876827372987    0.47649025216734
C        -0.29579702225634    1.84314507025650    2.46324604883373
O        -1.35503218569558    2.29540904329594    2.46371694446668
C         1.56120038929631    2.05851663542995    0.82340738095465
O         1.59918514989754    2.60543015139280   -0.19086985082597
C         3.26228240787733   -0.33229080651936    3.15169027096151
C         1.95018992809803   -0.59696818026158    3.71221535213210
C         1.18697093027601    0.17710498430763    4.55777222368754
B         1.42992039691730    1.61160620849895    5.03976820558912
C         2.19883048964219    2.54087948763287    4.09418259289707
C         3.15929597407861    2.22804746114959    3.15811733368325
C         3.81540063479694    0.96008968747251    2.89813329024599
C         5.07819245812362    1.02687315451310    2.27693576439373
C         5.79401448806575   -0.09440470442354    1.93803429456509
C         5.25447575828451   -1.35508088450508    2.18536805398290
C         4.01425934799904   -1.45911431024199    2.76466048827296
C         0.67292983670099    2.18383033903088    6.30600773547954
H         1.65248769115681   -1.63892279295952    3.59499343727478
H         0.32363353646644   -0.34308739390675    4.96878829488881
H         2.01495341668457    3.60914215894544    4.19365249948608
H         3.66476552100017    3.06292029380443    2.67283223332779
H         5.49935177391410    2.00320935101717    2.07890963350300
H         6.76620743202210   -0.00019094391446    1.47919779678330
H         5.80607644239895   -2.24362367635492    1.91930884809162
H         3.59788248279189   -2.43987957711826    2.95049881571879
H         1.17376308021376    3.03797441095655    6.75734537408173
H         0.51254475651397    1.43973922552077    7.08385992018302
H        -0.31543132113447    2.52988025608697    6.00090867607310

