97
CSD_code = KIHJIU | q = 0 | S = 0 | Stoichiometry = C43H50IrNP2 | MND = 7
Ir        3.31779331304595    5.61147018768885    3.24191752096717
P         5.27910663584936    4.07608489210461    2.76893858324193
P         3.59178530300939    5.78380968229144    5.65691705215920
N         2.46969405497525    2.23017468980795    1.94942783130100
C         1.63561532176144    3.07822088740829    2.55938905129711
C         0.30994252833269    3.20928988568468    2.11865872554780
C        -0.11642404154646    2.47834816716140    1.02971246928983
C         0.77317644497877    1.62003972879031    0.39959610970822
C         2.06400306779819    1.52452398514501    0.90604330919569
C         3.88816182349983    7.82056334226631    3.22332169163988
C         4.62726574114874    7.15010909262926    2.26920902741640
C         4.33930049299816    7.20173928714457    0.78761085082138
C         2.87205221210379    6.90090945095773    0.44111396420846
C         2.20126955018666    5.99910285481700    1.46592170325588
C         1.51575397146173    6.52488294402782    2.59981222966504
C         1.38442975864397    8.00434853019294    2.88692897399839
C         2.73352526502748    8.73495629467005    2.88664503500993
C         6.94302052505585    4.59029825429189    3.34093477775380
C         7.70478079282455    5.48447338761934    2.58869511572625
C         8.90475462837761    5.97392347280966    3.07084784644587
C         9.36759325804016    5.58349505962380    4.31662536539721
C         8.61801211791948    4.70244650050303    5.07809697064114
C         7.41509681821306    4.21896024150206    4.59789522437751
C         5.63713211253722    3.72357205673541    1.00584555257962
C         6.88983487395939    3.35235533977807    0.52547441343822
C         7.06018908270219    3.04724065634692   -0.81355429054491
C         5.98699295168124    3.10225668007309   -1.68757415696313
C         4.73691522461122    3.46497613446238   -1.21530087598924
C         4.56660711982188    3.77363603651326    0.12171040635264
C         5.21510041730274    2.32323929038927    3.38634191899628
C         6.39091770168751    1.42074392035226    3.04076503156901
C         2.01865622745105    6.38803617283427    6.35280209833313
C         1.74590028542198    7.75424349434758    6.32650946214140
C         0.51924923295396    8.23758170268064    6.74018117130694
C        -0.46475074218508    7.36101175564112    7.16866830861251
C        -0.21352110874992    5.99943919387960    7.17326595571576
C         1.01597149925688    5.51487538111030    6.76448431906600
C         4.79336042344227    6.92493950827261    6.45175759609547
C         6.03653273846224    7.05228852073139    5.84184561630991
C         7.02303092109950    7.84599856046860    6.39663689649110
C         6.77376456105186    8.53207046993995    7.57326821040295
C         5.53799978234024    8.41446822612681    8.18823537296447
C         4.55306530180318    7.61464136135438    7.63590001283719
C         3.94137962111102    4.30077523554058    6.73349149738315
C         3.89015180276563    4.51406195316732    8.24021392874041
H        -0.36565260774103    3.87592305962158    2.63300471850768
H        -1.13353979009639    2.56852514100622    0.67238127211470
H         0.47269267185601    1.03355041036418   -0.45558930105462
H         4.38768916090503    8.06139514957414    4.15684726223841
H         5.66917012793020    6.94992568816327    2.50547324826748
H         4.97627037278818    6.46543287949317    0.29168516597600
H         4.62624785418764    8.18835764121654    0.40249492695314
H         2.84014610383983    6.41668151343389   -0.53760744076828
H         2.30199125486123    7.82872073828605    0.35399018745279
H         1.73113361193253    5.12990344044032    1.01129694271890
H         0.61407070020526    5.99190905084688    2.89645497045855
H         0.91628442850131    8.11395478130012    3.86758813470769
H         0.70529177021529    8.45804556439227    2.15456020410535
H         2.91939707009310    9.18754439393727    1.91047449099939
H         2.70253121280206    9.54908636775735    3.61510141073561
H         7.36189994031810    5.78606169208118    1.60818297785970
H         9.48179645232964    6.66348338912271    2.47116866631752
H        10.30622781915067    5.96399753197563    4.69204741121784
H         8.96959979481079    4.39529105224516    6.05272952233239
H         6.83573687246246    3.54518395286510    5.21181533158541
H         7.74026957366078    3.30446170270112    1.19055316314483
H         8.03764607717960    2.76130259222466   -1.17607822776621
C         2.15988757622082    3.83663459707273    3.70372319861416
C         3.06762573230166    0.58771199225061    0.30074881939435
H         6.12751191391779    2.86335838625375   -2.73190780287729
H         3.89383619622647    3.50812901291157   -1.88989179785576
H         3.59960658252608    4.05409022823946    0.50399338729315
H         4.29022492580815    1.93023803630417    2.95167080017183
H         5.08054608216311    2.37017457775421    4.47026012272123
H         6.46604661710449    1.27554742788736    1.96594967066778
H         6.24507542386504    0.44495529231155    3.50211880478095
H         7.33501954843725    1.82749761136600    3.39971151714221
H         2.50742436757057    8.43956611213423    5.98124002109807
H         0.32542273797533    9.30088858366545    6.72322025355645
H        -1.42456045808911    7.73739041963233    7.49070026562253
H        -0.98109543748601    5.31030550922767    7.49587696261162
H         1.19191343127164    4.44944425385773    6.76475416841234
H         6.22330216361470    6.52221243937127    4.91940934361328
H         7.98250638105449    7.92944888930252    5.90720106159300
H         7.53778624837670    9.15863770487747    8.00966816894843
H         5.33989347388304    8.94749715180287    9.10728246427097
H         3.59458195378407    7.53302251337642    8.12782755120992
H         4.94220588119856    3.96824761479360    6.44275622984500
H         3.24008640948113    3.51753477618466    6.43781166425734
H         4.66924665327891    5.20095296292378    8.56311728682955
H         4.04234267975299    3.56395854317059    8.75088516839691
H         2.92724150892689    4.91568671207274    8.54811750007059
H         1.32271635347201    4.14215332735728    4.33931346549652
H         2.81123163096971    3.17158324021505    4.27504078797698
H         2.94347798430447    0.53401766608424   -0.77812034769530
H         2.93233303083980   -0.41334648663854    0.71040301844671
H         4.07437232080539    0.92250070128875    0.53331533239829

