82
CSD_code = KIHKUJ | q = 1 | S = 0 | Stoichiometry = C42H35O2P2Pd(1+) | MND = 5
Pd        1.52839766034593   20.65152403783446    6.14141913909184
P         2.99939412664066   18.88485901444731    5.88162925931238
P         0.44500357683210   20.49501805063367    4.14922499250766
C         2.28956965170960   17.43303801957905    6.70315253330866
C         2.83257510600920   16.15503654023125    6.59467724248279
H         3.69897044479010   15.98783880769408    5.96960053639107
C         2.24635700049739   15.10479242712767    7.27755379105352
H         2.66542502901625   14.11337606270415    7.19533566723241
C         1.12624205961174   15.31974399144035    8.06697502664350
H         0.67916581522681   14.49520605603844    8.60030969529032
C         0.57581834141881   16.58726705266831    8.16876004172960
H        -0.29491708036886   16.75713394556733    8.78348787404757
C         1.15551845548482   17.63890830348384    7.48342692735687
H         0.72006306558969   18.63820461577502    7.53994478496676
C         4.56776197008497   19.24195868986403    6.73590343548404
C         5.11191090280610   20.50879330976017    6.52445791978435
H         4.58739021781747   21.21215228781201    5.87876895484493
C         6.29891122935265   20.86842240928088    7.13310766952953
H         6.72120972279607   21.84780787965121    6.96426738242654
C         6.94272343323415   19.96863009652610    7.96936793667336
H         7.86652577801406   20.24886689176795    8.45125474136429
C         6.39713505179267   18.71547939920743    8.19384074236923
H         6.89602538481979   18.02019074395560    8.85167878148189
C         5.21168655716325   18.34641072515915    7.57972390736396
H         4.78522810052416   17.37121035739349    7.76423802560707
C         3.53687060457715   18.25009466875723    4.26565968167453
C         2.68822252009833   17.38560480036677    3.57884349463260
H         1.77577184136002   17.04886632888451    4.05151150778777
C         3.02163851627231   16.94959182576430    2.31078850635571
H         2.36362158914121   16.27354967111093    1.78593104519684
C         4.20051402338753   17.37274792330436    1.71799914360582
H         4.45914204810056   17.03221702559831    0.72736923701238
C         5.05193923520849   18.22362423656605    2.40249632411017
H         5.97693827154148   18.54308352800363    1.94739298234023
C         4.72313198703784   18.66676460108093    3.67083748570893
H         5.39371533461287   19.32671408509080    4.20217217775957
C        -0.44077341657771   18.91575645728167    4.19422073245031
C        -1.10089294374129   18.69879885542635    5.40646239951382
H        -1.06295053826315   19.47125422231947    6.17874092123771
C        -1.81147172112270   17.53245943792044    5.61209097910554
H        -2.32486853832121   17.36748121278869    6.54674587199787
C        -1.86009112114384   16.57357390073077    4.61072196756527
H        -2.41042079959661   15.65908310826415    4.76853106499618
C        -1.20501107715177   16.78604025677288    3.40896479558382
H        -1.24648696596617   16.03674736178416    2.63300988154506
C        -0.49314221362082   17.95538480112572    3.19306838288212
H         0.03023799060860   18.10723648450589    2.26162731594557
C        -0.81667911527502   21.72298599925174    3.69824095711059
C        -2.15893875490535   21.40437948467819    3.53079177216929
H        -2.49923191029840   20.38781840193286    3.66783955518124
C        -3.05738055947722   22.39981609913334    3.18492685640413
H        -4.10005011345745   22.15436925844349    3.05277786660100
C        -2.62368950207505   23.70305181882021    3.00828571067775
H        -3.32956739096040   24.47354272981830    2.73954369607116
C        -1.28366257737383   24.02150278142002    3.17639536562128
H        -0.94756722947620   25.03781196221261    3.03798365634565
C        -0.38119672661239   23.03589789744810    3.52303756029897
H         0.66869588577145   23.26959928002347    3.65994680435847
C         1.61781588747268   20.65453100522248    2.77874725216867
C         1.29891381249651   20.37892026374367    1.45372810170088
H         0.31344818071270   20.02024753759855    1.19507824520928
C         2.24431334633084   20.59371872264311    0.46691792859725
H         2.00540438642891   20.36855320223566   -0.56116580946228
C         3.48807412631016   21.11239627603147    0.79014359496008
H         4.21732142285886   21.28221677474799    0.01332233954956
C         3.79082991716258   21.43467988163419    2.10353597999456
H         4.74956680372023   21.86680258730011    2.34692380610632
C         2.85727558470381   21.20421407690114    3.09557841616302
H         3.06659001465653   21.46301194347638    4.13957325020214
C         0.38631382857011   22.27082972380429    6.80194063439021
H        -0.70005460212774   22.28612468327237    6.76455481135001
H         0.86178529800964   23.18467260780454    6.44135748338743
C         0.97712655339501   21.65728945957147    7.93240313826690
C         2.37275143698233   21.45238576865804    8.10503955844791
H         3.15461733391643   22.11610831283140    7.75072507803361
C         2.48262978543450   20.56542569106937    9.20478255979154
H         3.39079063577829   20.20939222197255    9.65067037526189
C         1.20515075090408   20.23067459637121    9.57994433782139
O         0.29414128502778   20.87855460072022    8.78692683950375
C         0.74887805710182   19.26722678195987   10.56729982555039
H         1.57831379181370   18.88532838614972   11.19146711306554
O        -0.38475587112471   18.88327467201696   10.69514243171050

