88
CSD_code = KIHKAP | q = 0 | S = 0 | Stoichiometry = C44H37Cl2NOP2Ru | MND = 5
C         9.00534423624535    5.90722839773690    5.49586942398036
H         9.14575957492221    6.95605387910888    5.80539943995490
H         9.94397395604906    5.36787395742393    5.64119904473016
C         7.89787221224871    5.28268245259509    6.29910399062803
C         8.08346404347279    4.81529713144539    7.59131099888501
H         9.05275341751860    4.92398461890000    8.05517738452553
C         7.04302762967421    4.21756602332907    8.27920258558468
H         7.19781579307337    3.86441630588810    9.28734566944113
C         5.80635420648132    4.05899272744860    7.67270367086687
H         4.99849577891260    3.57363380731965    8.19994813208077
C         5.60212679391247    4.52186404299701    6.38696370558541
H         4.63801965279929    4.37615925712432    5.89551840296678
C         6.64261530812392    5.15783582046731    5.70791973242646
C         7.50031667155290    6.44572802950764    3.82262231231812
H         7.48067758845286    7.46562266759880    4.26158541844844
C         7.24837716894805    6.50114533108779    2.33540443463060
C         8.05746459815733    5.79108323484680    1.46394715444095
H         8.90288506903470    5.25341809412548    1.86349209997604
C         7.78177572725617    5.77926718646070    0.10741734528422
H         8.41818070100341    5.22534387267390   -0.56599828879773
C         6.68457011754301    6.46858792424838   -0.37678778163034
H         6.45819207027578    6.45638322925220   -1.43277079238160
C         5.87065848299907    7.17944144061870    0.48811783084819
H         5.01488642685631    7.71157822427820    0.09899759866747
C         6.14023745513903    7.20837414682492    1.85207244356043
C         3.75047680517474    8.79242491954858    2.04829876594184
C         2.91814589395613    7.84710296240409    1.45062045101122
H         3.12755755185794    6.79574287354991    1.59003717375889
C         1.83894102869901    8.25322273309874    0.69018943459128
H         1.20925466354597    7.51579761841674    0.21528195833833
C         1.56098098782877    9.60271430514752    0.54423746052254
H         0.71534928660639    9.91946596585785   -0.04823028119880
C         2.36368156245701   10.54438062161765    1.16489019758613
H         2.14168275390199   11.59670452744192    1.06301442917472
C         3.45607700532161   10.14570055723357    1.91453489012264
H         4.08458030080369   10.88930036542610    2.38445862770008
C         6.25109713231476    9.64641106354691    3.10161547017599
C         6.65986666347952   10.19949566331297    1.88866030097865
H         6.31114238597334    9.77187996344683    0.95901125809021
C         7.50192066919390   11.29409618854399    1.87380648935238
H         7.81258443202742   11.71850522917532    0.93022645557894
C         7.94885398798481   11.84518007278286    3.06504176268626
H         8.60947383446942   12.69969896306903    3.04935394240974
C         7.54830108298967   11.29645228122937    4.27022426699009
H         7.89392885434020   11.71984225582216    5.20159250989038
C         6.70226486888223   10.19962607102071    4.29290262666342
H         6.39428439257431    9.76989753055217    5.23500733836198
C         1.21186002504708    8.01186895029816    4.26518829952590
C         0.66371309903989    6.88242598215986    3.66040096301906
H         1.09414347065117    5.91132609688016    3.86111431382385
C        -0.41714302174133    7.00497099989857    2.80920509258994
H        -0.84285910169742    6.12424230470749    2.35078327353955
C        -0.95437212118861    8.25508184727164    2.54626374507917
H        -1.80300461774371    8.35097442140757    1.88458830406523
C        -0.39979045118203    9.38158225237247    3.12906222761416
H        -0.81295999768105   10.35789816493235    2.92057171474439
C         0.68041759497883    9.26526521761604    3.98591310650838
H         1.10634991484898   10.14724880158295    4.44241343700257
C         1.87585858515088    6.71094553384890    6.70421993462120
C         2.76781762976294    6.16514961076371    7.62603355057664
H         3.82597560878885    6.39803926707386    7.55065011058299
C         2.30939904531784    5.35467583878104    8.64766359937784
H         3.00669871991807    4.94157951717431    9.36224885166916
C         0.95620176265057    5.07771009577715    8.75489968992205
H         0.59576980751896    4.43870480524700    9.54778717362522
C         0.06419679347908    5.62439968565063    7.84662542884617
H        -0.99212882524997    5.41507516538455    7.93473341602367
C         0.51616783910605    6.44115898624083    6.82514509730935
H        -0.18510818618128    6.86900269794350    6.12301239268688
C         2.72712962300289    9.38209537007370    6.23246786165867
C         3.51532900387827   10.33697235546207    5.59941192656625
H         4.00152597172770   10.06481191770357    4.66854306571286
C         3.68659376317936   11.58654228974037    6.16010612730013
H         4.30861026065732   12.32000056232966    5.66758547175880
C         3.06929812839357   11.88808807976669    7.36432895908934
H         3.20813619011697   12.86057323596740    7.81375978421613
C         2.28290009056816   10.94066136119706    7.99756482326785
H         1.80746362652259   11.17592174491275    8.93874854836653
C         2.10766213973459    9.68690076538936    7.43693902868966
H         1.49967450658626    8.94677039052261    7.93812642743820
Cl        3.59754619154749    5.14911668785325    3.45373221963239
Cl        5.71989646655349    7.94848369546492    6.55009273283270
N         6.38629208346231    5.69649665252623    4.42117822947917
H         6.06935415897794    4.95414622209741    3.78047697656563
O         8.73438693081987    5.84754742612567    4.10830203605480
P         5.14261479868316    8.18378417553296    3.04766126345279
P         2.60615586065909    7.76637604301589    5.40829507532055
Ru        4.59593580618428    6.84258024576934    4.77991823394544

