57
CSD_code = KIHLOE | q = 1 | S = 0 | Stoichiometry = C22H26IrN6O2(1+) | MND = 6
Ir        1.29904466066203    6.24461417793457    4.11450367198210
O         1.69352505483184    3.38775637919199    3.30830383540125
O         3.33268732534822    5.85720191820222   -0.09902473270796
N         0.46722823225214    8.59273818695720    5.79836570057676
N         1.04112548703893    8.27483259595627    4.60829162385731
N         1.14500118566036    6.79036941230951    7.18265969929943
N         1.87635585563979    6.08039924691254    6.29681003571963
N        -0.99767284506562    6.76583230771521    6.16028235160825
N        -0.76271479670025    6.06758405359503    5.02841055704581
C         1.53077658503703    4.46471426313338    3.64451998092490
C         0.66827014031522    6.51759569334395    2.18853833307531
C         1.36810471474923    6.41254095984202    1.06783305164839
C         2.82476990973553    6.16503946414744    0.95714682800914
C         3.64721139760825    6.39409648386200    2.16847502356112
C         3.20336329252555    6.50553330647826    3.41306875383690
C         0.03306351984937    7.58902236206029    6.73782017673004
C         1.30243713468993    9.42328588562274    3.99344661945503
C         0.89009510285932   10.49348279012917    4.80451600457055
C         0.36222444326903    9.94155713750420    5.94481511575711
C         1.92188678251199    9.53870974174435    2.65469581879966
C        -0.22106863589891   10.60128974963241    7.13725957447827
C         2.80008524581989    5.43318397998586    6.98540535941144
C         2.66161323023270    5.73749371826119    8.35317080591995
C         1.60044959782251    6.60256862361301    8.45341417585368
C         3.80409146035635    4.53657001407891    6.36940770315677
C         1.00563299047619    7.25223700676482    9.64550181337362
C        -1.86662771076876    5.39724489463512    4.74862693074597
C        -2.84128662938088    5.67403874171618    5.72635884375506
C        -2.26374585453257    6.54691239630873    6.61471263761098
C        -2.00796180619392    4.50442379658219    3.57631194133897
C        -2.81997948254306    7.17527215442976    7.83649687073438
H        -0.39600078722483    6.73489017113091    2.10566939989412
H         0.89432096315064    6.51733924715107    0.09770694069211
H         4.70332415129075    6.48552054010157    1.93812315432025
H         3.93156564788158    6.71429380779980    4.19584570523674
H        -0.38859183623831    8.10039042771110    7.60989684945326
H         0.97357630527813   11.53473910422818    4.57401511769008
H         2.21637387907743   10.56895635323506    2.47689200775490
H         1.21377239871937    9.23846759835189    1.88420064976029
H         2.78952815572781    8.88934849466795    2.57155893241942
H        -0.17531088833269   11.67767103313093    6.99985924223319
H         0.33282276696041   10.35316395439864    8.04267664111982
H        -1.26598153235529   10.32361050587652    7.27627607659154
H         3.26600376575196    5.36508809306470    9.15343053154098
H         3.60879949358356    4.40519840949863    5.30840313627707
H         3.78525613368980    3.56666672146156    6.86269096510348
H         4.80265530484254    4.95202916614215    6.49782811077507
H        -0.03491738605553    6.95810981108919    9.78275846930300
H         1.05640027492324    8.33881787156738    9.57426878239852
H         1.56070939305294    6.94620531572456   10.52733604450216
H        -3.83473215343585    5.27919604203078    5.76595047635287
H        -2.77132500816766    4.89209281606114    2.90323284369358
H        -2.32684108146367    3.51572444286390    3.90119059940425
H        -1.06812243490267    4.42002041864861    3.03693345688772
H        -2.81780490683867    8.26286140399130    7.76268196408293
H        -2.25995965251820    6.88297579156925    8.72480252892132
H        -3.84770655460298    6.84838101585137    7.96422626806319

