54
CSD_code = KIHMIZ | q = 0 | S = 0 | Stoichiometry = C22H25ClN2O2RuS | MND = 9
Ru        9.12189682865711    0.00949262961135    5.63034888201870
Cl        8.23632189689401    1.78351533310326    4.37670115231055
S         8.67895631954508   -1.40030721527908    3.78140853258934
O        10.94629712003260    0.43327013310713    4.74551971695300
O        12.33267618774848    0.99391733006021    3.13637313902721
N         9.61203778389545    1.18311479241648    0.21447995458930
C         9.58905712293478    0.88244203250028    7.71772214954309
H        10.16346523872794    1.75097016098857    8.02009246100591
C         6.87633697058989   -1.81145443649474   -0.24222597174242
H         6.14213807913124   -2.58089370117276   -0.42231554380857
C        10.93965924915398    1.51839573242077   -1.81551063325854
H        11.86426968981259    1.36648270708728   -1.26359005180171
H        11.12795829317533    2.21104049266447   -2.63061705988413
H        10.61730226046080    0.56751166767941   -2.23137208073319
N         8.07725334707242    0.06237198606793   -1.08268219448992
C        10.15692706096159    0.48964619245465    2.44115147543557
C         7.49905349286286    2.31020415052617    7.68261991356995
H         6.53017059631969    2.17809463212466    8.16090412591221
H         7.33116815409541    2.74187523996377    6.69234140638965
H         8.09902594020030    3.00926891770843    8.26080182983723
C         7.18938625303508   -0.89521636668444   -1.25806580455778
C         8.11937410094774   -1.40460303297208    7.03662854530351
H         7.53317265642715   -2.29669033785898    6.83126326965038
C         8.46212138921443   -0.69687844922505    1.17869653955998
C         9.85661923809787    2.07891100112618   -0.89971245066250
H        10.15868665906505    3.04756416992728   -0.49787283535915
H         8.92059087112443    2.18347596299919   -1.45003183854393
C        10.34704029412437    1.27475795566313    1.33483470492751
H        11.13403155564898    2.01486552587784    1.35440264891303
C         7.50857670725707   -1.70711368162380    0.97143650035641
H         7.29246895176168   -2.38485604708728    1.78272662475673
C         7.46383466849582   -0.16681922379891    7.17991149087846
H         6.38469761194667   -0.10859137518698    7.08565460897101
C         9.13532654121358   -0.48907885877881    2.42707986229217
C        10.23552078417858   -0.36889385615082    7.58180159274562
H        11.29963015642733   -0.42810672204815    7.77564740569344
C        11.22632616978793    0.66495940985517    3.53502095399401
C        10.61547791826763   -3.33455382093930    8.59012541876724
H        11.34565619066910   -2.64655655271659    9.01018069903736
H        11.06407309095766   -4.32360050300480    8.54106153936467
H         9.75701355467661   -3.37677218882207    9.25793837425925
C         8.19935812154650    0.99749034963921    7.52649051357522
C         6.52394781293737   -0.96606796083435   -2.59266791251482
H         6.92145043142852   -0.19493769951016   -3.24533521859570
H         5.45025194887551   -0.82429506612147   -2.48137174884873
H         6.68767547947384   -1.94305535179815   -3.04385009143454
C         8.70305905705875    0.17172670545146    0.08884384344897
C        10.18933118894303   -2.88399675887721    7.18932104783042
H         9.45943733397385   -3.60385774417379    6.80038539293410
C        11.38276234608331   -2.85379576826373    6.23231623036684
H        11.08593553467372   -2.41906771413851    5.27755274797791
H        11.74859765828462   -3.86261531003309    6.05677167040401
H        12.19788943324167   -2.25954528422270    6.63672630951582
C         9.51810665791437   -1.53374418315645    7.26273816154673

