71
CSD_code = KIHPUP | q = 0 | S = 0 | Stoichiometry = C30H36N2O2Ti | MND = 12
C         3.47109187150334    6.59099648396327    4.64249354012530
C         3.38635535678509    5.23037537788431    5.28092682244769
C         5.63729321043091    5.20912710138888    2.85002390871856
C         5.29776286700592    5.39256109128852    1.48030461589470
C         4.87067062326426    4.14826899644632    0.95459146898193
C         4.89160070636021    3.19804855456363    2.01542175085774
C         5.39048958170107    3.84314979925369    3.17686320790110
C         6.39541412214720    6.18127646815583    3.70207106656055
H         6.13232559992850    6.07041035384795    4.75443451563926
H         6.18629758681525    7.20689977586634    3.40420102964400
H         7.46884387197083    5.99868550923027    3.59863892260249
C         5.52901560725294    6.66266880460316    0.71463824740174
H         5.13162031354317    6.59151263176048   -0.29602461410595
H         6.59964978694571    6.86967403620988    0.64345971492768
H         5.05553069066187    7.50425697826971    1.22481294118713
C         4.81352453774344    3.83681462504975   -0.51342896622013
H         5.83111452350364    3.85902508826817   -0.91389433221533
H         4.22991784745320    4.56649473446845   -1.07144058461636
H         4.40926880586249    2.84601624604597   -0.70152270232536
C         4.69748541181439    1.71148525759654    1.92758291384495
H         4.32631382811377    1.40841869018552    0.95059795380540
H         4.00161118544705    1.36335032925287    2.69339843985612
H         5.65195025455152    1.20450451292116    2.09166747613320
C         5.84562010868634    3.13083845697703    4.41635963829567
H         6.79356176963616    2.62276394104487    4.21654559811430
H         5.11540201372866    2.38700151357325    4.73234888390479
H         5.99823729474012    3.82872848054273    5.23685095521637
C         1.08182346831625    4.89068124252080    3.15748435429484
C         1.34253605529990    5.93999868735655    2.22854955228429
C         1.76006330328438    5.35187390282359    1.00784825798796
C         1.71919464377541    3.93531379295823    1.16225355008353
C         1.32853317128044    3.65584291543341    2.49346610533112
C         0.39357880946447    5.06271942477988    4.47717641848712
H        -0.67131872793497    5.24930084116089    4.31344400793967
H         0.80634944828451    5.90989771271130    5.02669240297779
H         0.50118163172886    4.17117165184224    5.09104603068108
C         0.98397226650369    7.38687267390705    2.39935486302101
H         1.75123802858296    8.03407235364234    1.97566664990289
H         0.86677859045852    7.63911437244442    3.45122631965680
H         0.03899506377066    7.59194409667342    1.88779399191144
C         1.90781681988210    6.13567237401532   -0.26455323457380
H         0.94349133332593    6.57059401827749   -0.54087966014091
H         2.23536844854933    5.50982716408016   -1.09207232521267
H         2.61605463624859    6.95636231418068   -0.14045220868490
C         1.69543562160944    2.91987194721473    0.05586460759899
H         2.27127401524227    2.02832504209944    0.29836615319648
H         2.06465904117387    3.33245676170928   -0.87895588112513
H         0.66087498215999    2.60544947518460   -0.10831939685407
C         1.05568355469707    2.30250232520134    3.08295011018615
H         1.57301595473572    2.19431878642702    4.03837406505965
H         1.38307855382221    1.50982082040610    2.41314776555487
H        -0.01542089609410    2.17700376130639    3.25889672734487
N         3.53589007324162    6.55761880285425    3.37915841643698
N         3.24163405341424    4.28357455989846    4.45173891981784
Ti        3.34887119798436    4.83130084357920    2.64355345824071
O         4.06757975077137    8.92097759486415    4.94850056840231
C         3.41650623947399    7.83161290845395    5.41331101401878
C         2.71917734548619    8.16093455506336    6.54869711551748
H         2.09272854836271    7.51447710222390    7.12948659928600
C         2.97705565624091    9.52845352363826    6.78928869961363
H         2.59878370955673   10.12411412653334    7.59510996084859
C         3.80495767419940    9.93316736214210    5.78708361033263
H         4.26120264747843   10.87992408411336    5.57384651139163
O         4.20981342014359    5.88268680336829    7.48700952658355
C         3.52810370229445    5.00478141425146    6.71496562174474
C         3.09919979437398    3.95162772310127    7.48440543082860
H         2.53871977206560    3.10765956399605    7.13911237976168
C         3.53769036016224    4.21590559402533    8.80013378891062
H         3.37868984683028    3.61037771182083    9.66907194079341
C         4.20809056676563    5.39962983928106    8.73889898895776
H         4.71237844538931    5.97861358979505    9.48733580902207

