86
CSD_code = KIHPUM | q = 0 | S = 0 | Stoichiometry = C19H57N3Si6Ti | MND = 4
Ti        0.00001885781584    0.00014361500944   -0.09740622715462
N        -0.56642841649292    1.86515852132615   -0.42694062510357
Si        0.14200615225312    2.88509240054664   -1.64004728560829
Si       -1.75924424918811    2.55985005354535    0.62967545726670
C         1.48659307221352    1.87495615076109   -2.54092701885508
C         0.92338228715563    4.50416191603661   -0.96184722447077
C        -1.00032011012229    3.53557042732781   -3.04803155110019
C        -2.84859716815895    3.93922645254926   -0.13940607793857
C        -3.02733217769202    1.23075114472634    1.18758705079782
C        -0.97984747224667    3.41232386772528    2.17071514440674
C         0.00019778018616    0.00000159473679    2.00438781351417
H         2.33471215530135    1.67654972406847   -1.89478905487846
H         1.84869303693732    2.40704511853748   -3.41498818216088
H         1.08701144633782    0.91872638970142   -2.87545150635775
H         1.64836170767373    4.32971806126081   -0.17561894571743
H         0.15830434066129    5.16085449905316   -0.56090805794235
H         1.42796917931075    5.04410256866434   -1.75708679742116
H        -1.77188243074463    4.19655101002560   -2.67340323410322
H        -1.49046808252763    2.74398211080595   -3.60315758676258
H        -0.40786303291046    4.10727320737338   -3.75691691054765
H        -3.59695071901236    4.26600251320373    0.57595101995593
H        -3.37492432769632    3.59861577189234   -1.02475310520557
H        -2.26346334018691    4.80886590720663   -0.41466050605633
H        -3.99650704782061    1.41583501383259    0.73454668351961
H        -3.17571044637328    1.24986396614133    2.26316657309578
H        -2.70126973033475    0.23320935431818    0.90004417250576
H        -0.43367989111636    2.72039422751745    2.80311762869529
H        -1.75045840391764    3.87428981889383    2.78042455001496
H        -0.29063753290684    4.19572183222921    1.87210803342209
H         0.30685691409765   -0.96623304223302    2.40722160384919
N        -1.33203951866671   -1.42294469107113   -0.42674583763904
N         1.89843711942710   -0.44205245649636   -0.42674680869625
H         0.68382629814217    0.74858917405197    2.40702984877726
H        -0.98971255272124    0.21770413419071    2.40761519599536
Si       -2.56948659702606   -1.31964200680116   -1.63997197103704
Si       -1.33708310984742   -2.80329315737976    0.62985931352619
Si        2.42764371707441   -1.56542030354965   -1.63995919293566
Si        3.09641412142772    0.24380128454369    0.62975487342330
C        -2.36725155252225    0.34989242529615   -2.54095228709444
C        -4.36245104884180   -1.45239589341203   -0.96200954819879
C        -2.56173013441947   -2.63400754209655   -3.04810688941088
C        -1.98725008065652   -4.43625290504067   -0.13928781849700
C         0.44797668422602   -3.23704361424612    1.18770912938499
C        -2.46531452166313   -2.55447802377385    2.17072738304941
C         0.88058483162556   -2.22501038133450   -2.54083646514687
C         3.43903682550093   -3.05184075960923   -0.96206762362245
C         3.56199486555925   -0.90159277937267   -3.04813393608667
C         4.83572854178784    0.49700469710117   -0.13929615860174
C         2.57943042928851    2.00648983847624    1.18778022874814
C         3.44493863117895   -0.85795911670847    2.17046900707715
H        -2.61942122892533    1.18369904821271   -1.89493144459507
H        -3.00905076000385    0.39748641781732   -3.41505148023225
H        -1.33936854522535    0.48194791781965   -2.87551080344359
H        -4.57411757781072   -0.73742019372828   -0.17575685416148
H        -4.54845072411432   -2.44336419010577   -0.56113583471371
H        -5.08237416816667   -1.28555216151363   -1.75727320832576
H        -2.74814798021610   -3.63268619823374   -2.67337885752120
H        -1.63119063166891   -2.66256460462856   -3.60338763673107
H        -3.35321016693243   -2.40696732235585   -3.75691235404392
H        -1.89602879650570   -5.24758398241255    0.57622675719523
H        -1.42875759328126   -4.72178154738647   -1.02439901819819
H        -3.03290281838249   -4.36461936197402   -0.41484716401153
H         0.77158367553393   -4.16927116538491    0.73485452604429
H         0.50579072283371   -3.37482371662260    2.26331628029720
H         1.14922562625872   -2.45637568559642    0.89970386393201
H        -2.13931302535750   -1.73556736834171    2.80325185567129
H        -2.47989182138800   -3.45290875940802    2.78034043631883
H        -3.48844415143481   -2.34950663933290    1.87220115818113
H         0.28460963798090   -2.86017221771424   -1.89466347976411
H         1.16000870619274   -2.80474767623209   -3.41493468205024
H         0.25227932593120   -1.40085291740543   -2.87533940904197
H         2.92565921102124   -3.59249486669844   -0.17573156686284
H         4.39027344749534   -2.71742486296965   -0.56128625625046
H         3.65438871676492   -3.75882809501516   -1.75728933184543
H         4.52000863110286   -0.56364148001622   -2.67329822377679
H         3.12148485016777   -0.08145331405496   -3.60343060143396
H         3.76125257861221   -1.70051028410804   -3.75694121907624
H         5.49259229070520    0.98161598643997    0.57640001517165
H         4.80375429345301    1.12361232159781   -1.02427970599560
H         5.29658221449692   -0.44432966229321   -0.41496742835299
H         3.22519713545781    2.75279891001018    0.73516806632380
H         2.66964547828115    2.12522168721179    2.26343519143020
H         1.55280120281064    2.22362090877320    0.89958062644095
H         2.57275118674056   -0.98499679645061    2.80299992896885
H         4.23029040283223   -0.42144335830812    2.78009544103249
H         3.77887535537072   -1.84656688914274    1.87203613674497

