40
CSD_code = KIHPOH | q = 0 | S = 0 | Stoichiometry = C21H12ClN2O3Re | MND = 6
Re        0.43827475869396    1.27480632052139    4.83256442532913
C         2.23887224411363    0.61803947622193    4.46934715416693
O         3.24057414328294    0.17489172905328    4.14160514564461
C         0.95150937645354    3.01806223717606    4.12311170959020
O         1.18467987727971    4.00213083292791    3.58977847750186
C         0.75446349148765    1.71399824484466    6.69447917768225
O         0.92749675526313    1.96723291289733    7.80419829102609
Cl       -0.07923768674502    0.66668708698360    2.57544361310505
N        -1.69532795684972    1.65192358702951    4.85751669443218
C        -2.35053782133316    0.56862127647830    4.44398763022934
C        -3.65056818096413    0.65115276039442    3.90044931116465
H        -4.14371751052387   -0.23303275886938    3.53397462004573
C        -4.26466926910914    1.86418524324501    3.79505087327055
H        -5.24052462761551    1.95586022526164    3.34114674626802
C        -3.62329818243035    3.01251259661317    4.30082022296328
C        -2.32023653237392    2.85596033057818    4.84826489926991
C        -4.22032481859101    4.28714902753579    4.27564274287152
H        -5.20390277380347    4.38581384778620    3.83992114265924
C        -3.56999017725391    5.36977233629640    4.79882385037203
H        -4.02912864917557    6.34636557530761    4.77648960933811
C        -2.30296365293118    5.21192584691203    5.38014972729802
H        -1.80787734615995    6.06782079064371    5.81270179599408
C        -1.68990894890647    3.98955232095755    5.40633864878588
H        -0.71981710083510    3.87057402853544    5.86908396414323
N        -0.46022154247605   -0.66225624494712    5.20423207031117
C        -1.67027512677886   -0.71795427613960    4.65069051346146
C        -2.29097089280788   -1.94864960586424    4.34673460259814
H        -3.25676124714372   -1.96756153021409    3.87117199574939
C        -1.64689098899304   -3.11847442425764    4.62247771374912
H        -2.08605375953269   -4.07016543682353    4.36141143293673
C        -0.39770245233166   -3.08524303934673    5.27360362958947
C         0.16369873732926   -1.81163723511574    5.56562555633380
C         0.29831309402369   -4.25429667750191    5.63517099510658
H        -0.14084434286459   -5.21044001368821    5.39039700927496
C         1.49700335374553   -4.17608619988051    6.28753287905285
H         2.02961346899136   -5.07383851007997    6.56198625613204
C         2.03513764333248   -2.92247449083365    6.61438868573840
H         2.97084182595270   -2.87048023251374    7.14968008425566
C         1.38942928156720   -1.76836935920148    6.26532005329240
H         1.80204353701322   -0.80577859893557    6.53428604927195

