49
CSD_code = KIHQEZ | q = 0 | S = 0 | Stoichiometry = C13H30ClNOOsP2 | MND = 6
C        -5.38008830901607    1.06489426091494    8.97115182697842
H        -6.39148965500317    1.22313841807447    9.38158458248406
H        -5.17251055215178   -0.01178704405031    8.98217641813408
C        -5.30039380787053    1.60030458130500    7.54338921334574
H        -5.56798359365067    2.66183079637885    7.53091531223116
H        -5.98245381172924    1.06026964070587    6.88381728025394
C        -4.40854220152977    1.38090056291504   11.20269374561957
H        -4.14195361869687    0.32199710404157   11.29929003371204
H        -5.41991500894840    1.51978613489546   11.62002955993200
C        -3.40328934211996    2.24548729535551   11.96116242120993
H        -3.31417716067029    1.91888007150757   12.99968169106434
H        -3.72946327101213    3.29063577920994   11.94249482093682
C        -3.50489973063786   -0.15922805916507    6.09281569388481
H        -2.45349859518148   -0.34623220519905    5.85606896860639
H        -3.78862252888279   -0.89381412265342    6.85245464268524
C        -4.37021172371715   -0.31306211508749    4.84893350048476
H        -5.41164283260360   -0.07041367415383    5.05125875528160
H        -4.32926047866680   -1.34365725322909    4.50065255745160
H        -4.01947965233124    0.32629530499406    4.04310680572758
C        -3.54025488557992    2.70846947276034    5.58872179503050
H        -4.37879444716472    2.51781908019847    4.91264373255305
H        -3.68865586730977    3.68257283678684    6.06308662579378
C        -2.20435446014011    2.69513160062673    4.85632076239474
H        -1.39481666158841    2.84644784165257    5.56970698855514
H        -2.16562195649827    3.49150573789990    4.11539295894956
H        -2.03761770730703    1.74498788303784    4.35211546474126
C        -0.87545163557091    0.87816122801567   12.06948393858220
H        -0.83663081864836    1.16208045739701   13.12421711946825
H        -1.46273686976689   -0.03932405964002   11.97718893542099
C         0.51584676066951    0.65630368577194   11.49252882845646
H         0.43210644453076    0.46685212350919   10.42138215082805
H         1.00130457890754   -0.19509351504759   11.96512349816702
H         1.14206842068471    1.53404531503420   11.63779602815857
C        -0.96435074840879    3.74566925890662   11.58667703174094
H         0.01072836822512    3.76553469983565   11.08907511176296
H        -1.57071534751519    4.53061743125821   11.12405091243818
C        -0.81175822995664    3.99582773717209   13.08134525693711
H        -1.76791012272555    3.92056926301668   13.59501115455485
H        -0.42003682375649    4.99845401657624   13.24333361981994
H        -0.11804122837195    3.28994029094787   13.53183730704462
C        -0.60142102939415    1.90793624415717    8.14187542448540
Cl       -2.88652801067163    4.09307322739376    8.72060833503019
N        -4.37128610982578    1.73552910104899    9.78649404792499
O         0.45923959937739    2.02773851366618    7.68566943834355
Os       -2.30367764556552    1.76436361538425    8.88230670234474
P        -3.53904416666017    1.47616507661522    6.95585538343157
P        -1.76166644914390    2.16061324599174   11.08483144698438
H        -2.16740411371710    0.20671592078999    9.08124130334057
H        -4.53514296268775    2.74986719247429    9.71160086669257

