49
CSD_code = KIHQOH | q = 0 | S = 0 | Stoichiometry = C25H18BrClNNiOP | MND = 4
Ni        7.94675800296550   -2.71067775996676   -1.85027829117376
Cl        8.65329880368347   -2.48411319398981    0.07968999886257
C         5.65591660634805   -4.32110770699965   -3.49310513999828
C         5.94134413580200   -4.72166381772509   -2.14100546386123
O         6.82179973744604   -4.17086592627888   -1.41501056625435
C         5.16091409662398   -5.78770682279989   -1.59972063717346
H         5.38760332046577   -6.09590947394987   -0.59084067983581
C         4.15937602025148   -6.37975375956892   -2.30755173649893
H         3.57351711267629   -7.17658235660208   -1.87422097982410
C         3.88037778553281   -5.94756638468163   -3.61385923741011
Br        2.46653182143930   -6.78661331472518   -4.58399666342335
C         4.60388115497567   -4.94838007481542   -4.19553377589299
H         4.38375671677862   -4.63217546023658   -5.20528150990729
C         6.40734908729934   -3.33228072968062   -4.16329090121860
H         6.06639145581572   -3.11803164402465   -5.17631367039242
N         7.44052233423098   -2.67517907346231   -3.70493811121733
C         8.14486705361175   -1.80224416834141   -4.55125776901170
C         8.99727604328480   -0.85737464479302   -3.95465375257845
C         9.71718586370040    0.04591382432407   -4.71914758973571
H        10.36361064724928    0.75911075334622   -4.22833036041835
C         9.61133622124815    0.02094341040020   -6.09829294529673
H        10.16879451034843    0.72207495820757   -6.70004145958138
C         8.80647418202191   -0.93253832150104   -6.70164337855435
H         8.74587939544796   -0.97991384758686   -7.77867876162222
C         8.08459810567424   -1.83821466242136   -5.94680061391030
H         7.50193247949473   -2.58822683345342   -6.45963186144503
P         9.15388112073418   -1.03644621090397   -2.14201899244827
C        10.94695842441187   -1.20379832670265   -1.93652644735275
C        11.79639245114925   -0.10841109792649   -1.83703403620502
H        11.39103928990818    0.89353290738192   -1.81536913290118
C        13.16216777699182   -0.31051061899144   -1.74688629155269
H        13.82492204016666    0.53825185085567   -1.66260489816780
C        13.68053182136843   -1.59537121377767   -1.76091667355138
H        14.74736171138168   -1.74513597555423   -1.68665581349262
C        12.83394963135841   -2.68819944174923   -1.86187259491937
H        13.23938015790636   -3.68883083573191   -1.86616984656900
C        11.46885618919648   -2.49301981402184   -1.95014464009814
H        10.78555600617948   -3.33468362965109   -2.01095782244272
C         8.73733348853902    0.57719238062418   -1.44378989622054
C         7.96068138126992    1.48775633111113   -2.15251447854721
H         7.62171464058678    1.24591397224973   -3.15072729518692
C         7.62609095400837    2.69967449863904   -1.57517099461106
H         7.02603528095312    3.40898634143558   -2.12601199742600
C         8.05375585766742    3.00006803648167   -0.29210222345485
H         7.78776624763445    3.94617582943996    0.15537969728869
C         8.81269508387452    2.08480366460427    0.42149247218985
H         9.13457468027209    2.31616804085319    1.42576786195713
C         9.15274918798633    0.87182587212275   -0.14696684730782
H         9.72341388203348    0.13753447053709    0.40383674839852

