81
CSD_code = KIHSUS | q = 0 | S = 0 | Stoichiometry = C36H30N8NiO4S2 | MND = 6
C        -0.93438990242166    1.97398059277414    7.39544290737668
C        -1.89034132332048    2.93288141824137    7.04364426010852
H        -1.86409305362257    3.91386353204238    7.48655328854406
C        -2.86445810067925    2.59644345963497    6.12236345215360
H        -3.61576765947608    3.31922992575654    5.83786202015021
C        -2.86523874445143    1.32404353171031    5.56974793589391
H        -3.60308867961822    1.02790798343511    4.84059569353532
C        -1.88527062876711    0.43943032250699    5.99112987582834
H        -1.83776494468683   -0.57127649537119    5.60489309799774
C         0.14221566315455    2.26203003576206    8.35468716099160
C         0.68427254356021    1.23358854768555    9.22994993589468
C         0.10845936257050   -0.02893514882772    9.40552591374779
H        -0.76517858689295   -0.29869372322558    8.83721626164088
C         0.67746439811221   -0.91146670103955   10.30108502528556
H         0.24325564516227   -1.88907092476897   10.45179574982071
C         1.80812412969232   -0.52647887529334   11.00879961063439
H         2.27855143005847   -1.18830980364530   11.71798043718777
C         2.32011319970004    0.73996002556583   10.78288989396153
H         3.20054035578100    1.08408223065239   11.30994273347788
C         3.88852345202086    3.26528449362272    7.16928653087112
H         3.01111757345688    2.91625862869429    6.64033932009500
C         5.08013278851692    3.48462210624280    6.49900563292867
H         5.14975540266468    3.31443151674134    5.43670140911090
C         6.17151544726688    3.92992446914732    7.23242427667653
H         7.11794890139548    4.11844788136284    6.74693171195511
C         6.03366057544820    4.13614424385015    8.59011812825747
H         6.86199095317433    4.47631453029893    9.18777623444270
C         4.79753717489318    3.89090539351868    9.19671409945296
C         4.52340843246399    4.12305405926353   10.60682355119417
C         5.60027713930604    4.40658345519543   11.56734820168958
C         5.40629864001596    5.24268997223332   12.67188199210385
H         4.45224633133224    5.71446023469982   12.83493634352147
C         6.45894401654475    5.45083911006745   13.54332381831129
H         6.33433338516368    6.09547345095402   14.40163803981254
C         7.67262433736691    4.82348159786845   13.30282706805714
H         8.51385245063030    4.95308177563554   13.96564192120038
C         7.77167930957703    4.02506891733450   12.17444623286798
H         8.69529063589389    3.51702570267326   11.92586380300520
C        -0.36994766877804    6.76112077594437    9.02962443413808
C        -0.54299783022956    8.11729869315151    8.83258246193729
H         0.05692859742820    8.61014923811872    8.08404448658820
C        -1.47917446574204    8.80272719272133    9.58716892362157
H        -1.61949937619186    9.86288693167264    9.43155091842056
C        -2.24075381365978    8.14016787571331   10.54278799090151
C        -2.05383918944302    6.77290056819506   10.71982861239222
H        -2.64020984976361    6.24683082499590   11.45853449231497
C        -1.12356907893078    6.08000225674787    9.96612256954851
H        -0.97303532145786    5.02299776945587   10.12213663618530
C        -3.25738899313533    8.86879260006716   11.36617406602324
H        -3.12151305005049    8.64053034756480   12.42124129861377
H        -4.26180781182774    8.55403800166665   11.08475941275154
H        -3.18187776663814    9.94340783273179   11.22331273292909
C         0.92436379595887    6.05517228912723   12.65545657758081
C        -0.01046634464079    6.44493040929903   13.59450044107728
H        -0.44475477097901    5.69239536256060   14.23344136045547
C        -0.35804837303618    7.78074102681897   13.69802744216693
H        -1.08616428534336    8.08850826419498   14.43507730536511
C         0.22051326456241    8.72970035382313   12.86340919139244
C         1.16337646043958    8.31493934608824   11.92813193099815
H         1.62096043344640    9.04302600783558   11.27464572292233
C         1.51949638925225    6.98246578285721   11.82193107501334
H         2.23994773771113    6.66739610601372   11.08281104956009
C        -0.14405678361586   10.17850095327039   12.96628875631367
H        -0.37937341314578   10.57928806467577   11.98255601934217
H         0.69529329290859   10.74752524691420   13.36516468475151
H        -0.99859802744026   10.32303642306123   13.62189665364485
N        -0.95450198002310    0.74650332556683    6.87308925168193
N         1.78301069830659    1.59095997250313    9.92400320486982
N         0.67982216053993    3.45715095495262    8.47840513516479
N         0.31226277015159    4.45866462924438    7.73877052496532
N         3.74822924299809    3.45720781270050    8.47067771028551
N         6.77699613039225    3.82354237248160   11.33270673234604
N         3.25787771975103    4.05975370616140   10.96214287182586
N         2.88032798351089    4.21200216666335   12.19494013814191
O         1.16289458500829    6.67348720853430    6.91819911952126
O         2.06915506097819    5.79928868069791    9.02392116278454
O         0.50896627328514    3.83925494680372   11.31586170818903
O         0.96496824843154    3.67339422837595   13.72245614126653
S         0.92432901308981    5.92144903843957    8.11472609392713
S         1.27781443922266    4.30544521421201   12.47476870616095
Ni        1.97320184572327    3.75171772436851    9.71609068210977

