132
CSD_code = KIHTAY | q = 0 | S = 0 | Stoichiometry = C49H76N3O2SiY | MND = 6
Y        -2.68714245433010   11.04909624823183    3.94540875472063
Si        0.26284939198369   12.33211961361660    2.14161786312549
O        -2.48154715541888    8.63727897130231    2.62687242537589
O        -4.13434392022207    8.94433932662180    4.88157511506551
N        -4.18998615405444   12.64650542486729    4.85220525532226
N        -4.99969225680307   11.57051711576354    3.03449023903209
N        -1.54001604584230   10.90464832366552    5.81970776029422
H        -1.81216331554238   11.70905968651141    6.38783210628829
C        -4.30598810062640   13.45237884667190    5.98847475801951
C        -3.28629953146440   14.38017554771590    6.27085620176574
C        -3.31088825012839   15.08794540882768    7.45809145065257
H        -2.51941963013747   15.79506028815872    7.66665323058449
C        -4.33040694589612   14.92024235027909    8.38743879307831
C        -5.34237670840156   14.02400370884480    8.08929192406576
H        -6.15368821919928   13.88458501342885    8.79175548794952
C        -5.35195175595687   13.28912213496219    6.91175575718923
C        -2.19698306211696   14.61505038205249    5.26607910410089
H        -1.49028398895644   15.35445219601989    5.63641506318273
H        -2.62422152727662   14.97786470724190    4.32998560578111
H        -1.65948634398636   13.68789611255323    5.04369527859485
C        -4.31704636797168   15.68095990002316    9.68025565798914
H        -4.07208868391210   16.72778450834238    9.50877610539114
H        -3.56373407121701   15.26952146396832   10.35371319655913
H        -5.28351554406875   15.62346748836986   10.17545758952751
C        -6.48568485681330   12.33130290295240    6.67449649867951
H        -6.24352342808106   11.61545423196628    5.89203956231976
H        -7.38007294478603   12.87193359273377    6.36079814355281
H        -6.72324969799636   11.79245103863487    7.59130381914491
C        -5.13648367282426   12.60485351243307    3.91831803234322
C        -6.18298905221316   13.55324697651297    3.76635208028721
H        -6.24259092709881   14.37460399628954    4.46353835195174
C        -7.05802062116880   13.41985652505717    2.72626741797697
H        -7.85000641205054   14.14110757742236    2.57881350067461
C        -6.93145449980926   12.33575100093942    1.85317512315572
H        -7.62375620702584   12.19826580062233    1.03700038386490
C        -5.89735098120592   11.43825525851251    2.05251291205229
C        -5.79452612631645   10.23318810831400    1.18519400081166
C        -6.44152664140582    9.05608335293465    1.58455923399948
C        -6.37479763572714    7.94130852420796    0.76176190504265
H        -6.87449131742680    7.03319582568293    1.05873944674881
C        -5.68441177400945    7.96562492797751   -0.44168887324459
C        -5.06674956575567    9.14480030815446   -0.82575202826904
H        -4.54587511630871    9.17382240558102   -1.77117382801016
C        -5.11072407699541   10.28425346277020   -0.03144841834173
C        -7.24641911070480    9.02287306881139    2.86735317289144
H        -6.77417651531503    9.70937765332839    3.57788151636761
C        -8.67300731498153    9.51039811294921    2.58885179381117
H        -8.66923465819234   10.53962803795165    2.24354568382702
H        -9.27236816061194    9.45469250232834    3.49555011482102
H        -9.13917866241017    8.88974720753218    1.82547584454323
C        -7.31887905277803    7.64004559267028    3.51804408103567
H        -6.33545602847971    7.18262333848743    3.59114650163355
H        -7.97129816769268    6.97547689977241    2.95539603697421
H        -7.73255272692721    7.73282633224178    4.52067730791945
C        -5.59651225267487    6.73482113071267   -1.31162707700264
H        -5.04714309474153    6.99866444602077   -2.22247796836652
C        -4.82064953684514    5.62742329211630   -0.59315971408402
H        -3.82075864874117    5.97106094037728   -0.33418889693414
H        -4.73011291551539    4.75335708163844   -1.23442189061567
H        -5.32971878754050    5.33104667587547    0.32123787776207
C        -6.98632727629443    6.24482294689431   -1.72153333333909
H        -7.53956915692745    7.04420873986391   -2.20988541731635
H        -7.55416432766747    5.91489785210092   -0.85510165619080
H        -6.90246084575983    5.40908993564259   -2.41303626679186
C        -4.47763496641851   11.57359083627446   -0.50501063578842
H        -4.26676307619781   12.19051476636578    0.37502192501982
C        -5.46841436332165   12.32813838102370   -1.39827290073523
H        -6.36948087697589   12.58167295250050   -0.84748106036994
H        -5.74766091119797   11.71531026250187   -2.25357175745398
H        -5.01768684996854   13.24866970706519   -1.76268812937782
C        -3.16915014464411   11.36236694664771   -1.27032258069675
H        -2.50945806892135   10.67707490561038   -0.74342045931826
H        -2.65488983965803   12.31430002440833   -1.38275891803576
H        -3.35632779570994   10.96662183670842   -2.26618752430698
C        -1.61489004983458   12.17596781678451    2.18613345835454
H        -1.94480821821768   11.74289587559209    1.23568186902717
H        -2.02990723805268   13.19412660196189    2.19776257171927
C         0.90942274105089   13.65040725998835    0.90223883380493
H         0.51816119268799   14.63493517536844    1.13927055761007
H         0.60958606402138   13.41787217731881   -0.11527320071093
H         1.99301487532881   13.71812184460192    0.91595814531174
C         1.06100208320146   10.67843256162783    1.58210961862523
H         0.72105037454202    9.84422832124158    2.18692533381442
H         2.14241095819722   10.72371954599224    1.66425800263761
H         0.82778101646553   10.45932575747132    0.54372735995046
C         0.94170968950181   12.81030080547570    3.86527025351661
H         0.78831854456020   13.86642655800193    4.06492312613017
H         2.00738231678912   12.61825229189207    3.94372027850415
H         0.44114327622776   12.24397833690670    4.64786424875146
C        -1.48429162696989    9.80914924422235    6.63924818468152
C        -2.07560318409462    9.79993318317959    7.93574420979061
C        -1.97853350700917    8.66867386830817    8.72587532948028
H        -2.41747550217162    8.66364872254156    9.71198442601003
C        -1.33287270046529    7.52814129144268    8.28136664565831
H        -1.27997677984436    6.65093791841902    8.90929594776210
C        -0.72354409938792    7.53710121735046    7.03795876254452
H        -0.18119550517031    6.65952639040959    6.71855285094829
C        -0.77301913465526    8.65020132503426    6.21941898210868
C        -2.78804819382346   11.03890693857313    8.44344240415443
H        -3.28480667931764   11.52918048974477    7.59515124894136
C        -3.88173783561427   10.75658175569224    9.47375564010570
H        -4.56032567332339    9.98117693197297    9.12318936256691
H        -4.45390683301798   11.66731417356850    9.64058593684203
H        -3.45944671291170   10.44817985595282   10.42728991735608
C        -1.77082376494320   12.01988430237945    9.04029920792490
H        -0.97891842650772   12.24632216475827    8.32970626385568
H        -1.31335829347692   11.58541890565186    9.92744107642540
H        -2.26288805085737   12.95043964197130    9.31594602784829
C         0.04259097539666    8.71236544860867    4.94516460444433
H        -0.47934378736254    9.37634016974034    4.23492486450884
C         0.26944325703252    7.36394841119857    4.26040535521995
H        -0.66399350822267    6.82135749689358    4.12564805559751
H         0.95114791967207    6.74196501725936    4.83644562900187
H         0.71696979231538    7.52330267932346    3.28059285725257
C         1.39576925019624    9.34870928202222    5.28289782970740
H         1.24195383796170   10.31720684061603    5.74942971857291
H         1.99520338398858    9.48437401553415    4.38555059286013
H         1.94167299669646    8.71362769947302    5.97860601299772
C        -2.07717640887920    8.48328447258167    1.27690684211292
H        -1.59332203860347    7.50957462939453    1.13352991118784
H        -1.36243202580847    9.27748955104961    1.07063611753949
H        -2.93648741841109    8.56143050477256    0.60063094965240
C        -3.40306837702363    7.62984385939799    3.00775821329354
H        -3.00669990839237    6.64012469592158    2.73520214049783
H        -4.35584746425712    7.79047226938999    2.48165295570172
C        -3.61937038722963    7.67430622498171    4.51555773785218
H        -4.33511565131430    6.88678524642586    4.79118600610589
H        -2.67359103309016    7.49653427293101    5.04896414374218
C        -4.72818939594166    8.90898164886041    6.17023723727033
H        -5.62560490395265    8.27888170433111    6.15727486216099
H        -4.99872890609527    9.93164873410345    6.42289097668748
H        -4.02422499119883    8.52745936961341    6.91673584571179

