76
CSD_code = KIHTUS | q = 0 | S = 0 | Stoichiometry = C20H45CoN4O2P4 | MND = 5
Co        9.27554398698808    1.81618513812185    3.81836475208568
P         9.40206246464422    4.01138885375658    3.33210610523443
P         7.07613652504260    1.72047251414258    3.55714349057203
P        10.16510314710237    0.81564543873809    1.72839344667199
P         9.35697991071226    0.06176693547962    5.22585619674861
N        12.00814298343350    1.59926114744119    3.41447893541705
N        11.65226825620889    2.54273391800552    5.38360331931892
N        15.34187859335607    2.54581082241249    5.45443733693505
N        14.44519055572150    1.61988075119127    3.48225609362948
O        14.04826067252269    3.37782458759706    7.15625766075687
O        16.67848880388625    1.75190753389619    3.80159366568927
C        11.07516842091181    2.01794706760603    4.27939877683648
C        13.19758198284734    1.86515002701294    3.98137253878298
C        13.02426365444220    2.45821424895116    5.22498351929337
C        14.10428668327035    2.84783721040748    6.05635581719276
C        15.55562009888106    1.96099960106044    4.21975555540253
C        16.54517709180950    2.88451186537309    6.19273188473207
H        16.23188975113989    3.33755075719818    7.13093881610147
H        17.15228746633368    3.58208664899522    5.61559771793546
H        17.13232589615925    1.98536717264694    6.38010239404981
C        14.62728313605665    1.02289385774666    2.17808601157306
H        13.67279794285945    0.60611304077575    1.86912641231025
H        15.39238264196366    0.24908633177599    2.24011148623888
H        14.95641824093491    1.77530331064677    1.45784194642526
C         8.32527937274625    5.28149453238263    4.13746405971375
H         7.28408235730633    5.12522256397211    3.86590933472189
H         8.63102214756562    6.27923393971226    3.82505573064753
H         8.42404968079472    5.20028436614938    5.21868790564768
C         9.12047375184682    4.44482488435553    1.55904176949041
H        10.07803314349755    4.37770991543928    1.04889062760190
H         8.73057214146004    5.45770803379086    1.46609769683061
H         8.43575551392428    3.74130405081115    1.09624707830515
C        10.99192287248245    4.91911602637181    3.51722060903228
H        11.22363285709275    5.07503116239152    4.56725213594666
H        10.92085011759106    5.88596649561434    3.01840453369549
H        11.79136833031570    4.33680586638495    3.06459495041530
C         6.15453899946226    2.43721251575385    4.98293312975331
H         6.40169125979404    1.88831091516129    5.88728124880483
H         5.08018758963694    2.38603145504826    4.80834417132882
H         6.45064141594348    3.47229951034636    5.12624801692347
C         6.18979739555152    2.60535989147431    2.20345842361357
H         6.43733778204326    3.66363066532737    2.22342423047153
H         5.11261002963839    2.48654142683572    2.31823722842869
H         6.49259906935134    2.19012285514238    1.24425001674671
C         6.14089644907056    0.13595275440775    3.42728230410260
H         6.44362391276130   -0.39103773440768    2.52459979788927
H         5.07046256443525    0.33476154408424    3.37987336954406
H         6.34995060074126   -0.49206886709082    4.28967693359462
C         8.93364217845216    0.23713640797323    0.45935878475668
H         8.26027694247430   -0.48999882268569    0.90846726084056
H         9.43141466193243   -0.22036927768969   -0.39497032915921
H         8.34224009231420    1.08220094377806    0.11277147672434
C        11.09434167495823   -0.77520904235457    1.80389641161546
H        11.79608926420348   -0.74875629380420    2.63034505330523
H        11.62797300615308   -0.94720398571223    0.86995832490693
H        10.38526533451754   -1.58518756801084    1.95838567839871
C        11.20590005744042    1.76460960388684    0.53758967776814
H        10.56427039827276    2.42841291464127   -0.03742472070238
H        11.71112471305704    1.08419411055091   -0.14642266908647
H        11.93916140894668    2.34940461957825    1.08133380772960
C         8.97980981195615   -1.60139936119191    4.51090553363811
H         8.30876792885396   -1.51166796439727    3.66278586056079
H         8.53761276715329   -2.25235367908121    5.26393008870286
H         9.91458812537978   -2.03506402499294    4.16464078238326
C        10.94332062486523   -0.41316759088375    6.02869358458138
H        11.72946163612227   -0.44522224007371    5.27759044603034
H        10.84061900143266   -1.39609093274761    6.48908960124388
H        11.21890818856689    0.31078409788719    6.79036692296499
C         8.30277786357869   -0.01001387625451    6.74301344148664
H         8.44372511527050    0.90216991536719    7.32005652349866
H         8.58562887527443   -0.86728771081250    7.35265373204886
H         7.25361508295002   -0.09539553988488    6.47015120467395
C        10.98909385053138    3.09630144751544    6.52621524092818
H        11.31538642479445    4.12350941028868    6.70035225485761
H        11.22250670370808    2.52387773307107    7.42685023030188
H         9.91406000449631    3.06932915555312    6.33544661180679

