62
CSD_code = KIHTAX | q = 0 | S = 0 | Stoichiometry = C31H23AsCl2NO3Re | MND = 6
Re        4.62970853128541    7.62406413869211    9.59201604923440
Cl        6.09267620849202    6.12398316041230    8.59792038426914
Cl        6.23607787231082    9.25687676857437    9.62277980228037
As        2.94254662331660    9.39353649768386   10.29156551364442
O         4.09368395601607    8.15083320852552    7.84941052984705
O         1.40296613973504    5.01267226229727    8.23082394589552
O         4.83664634723035    7.19248643159936   11.17880798849671
N         3.06436789808187    6.11508580238407    9.20957952802873
C         3.17929367115649    7.99021558307070    6.94679523771922
C         3.10813090923525    8.84582316324907    5.83256709955558
H         3.84448228753046    9.63125641554232    5.75103947390108
C         2.12948643936738    8.68216310079497    4.88124023934645
H         2.09296614952266    9.35311155694526    4.03576133683302
C         1.18645107982098    7.66282880216700    4.99498600652101
H         0.42475290353460    7.54473713381283    4.24026897914926
C         1.23362711423863    6.80504969505196    6.06923832597396
H         0.51360921212750    6.00783609984298    6.17428573982840
C         2.21408817483513    6.94971692308518    7.05526297308297
C         2.25953335495189    6.05072392305154    8.17218633306774
C         1.69447879272363    4.36248638996517    9.38913296341010
C         1.12153683178018    3.23525369431142    9.94599266259218
H         0.31383740615621    2.71534392351436    9.45769707866601
C         1.64789195257814    2.81336267662594   11.15421397862525
H         1.23555485924127    1.93452337434224   11.62575130192242
C         2.70060476029146    3.48607388820866   11.77676100379892
H         3.07826624253498    3.10934609609817   12.71472613370856
C         3.27333214708568    4.61275440277896   11.22187196304035
H         4.09333474251280    5.14680886670576   11.67847451731374
C         2.74932157918712    5.04715037465473   10.01311604313741
C         2.80118575275990   11.07218153377828    9.31009174921116
C         1.68687107697673   11.88661141344524    9.50269573173668
H         0.91226572325282   11.57415312794911   10.19800981613880
C         1.57544302043575   13.08011010677516    8.81263898961770
H         0.71106532978284   13.71086611477564    8.96144706406899
C         2.57439780466104   13.46686046262720    7.93192010508078
H         2.48409109603891   14.39862203978445    7.39331584558968
C         3.68827151975545   12.66561905122240    7.74893974475013
H         4.47076136497425   12.97436851180381    7.07150901129699
C         3.80636535175156   11.46878475600410    8.43805216001776
H         4.68713125913162   10.84700871328400    8.32055126761131
C         2.97307197520476   10.01598467740510   12.13503724654706
C         4.22578561114342   10.20884290143841   12.70916262874067
H         5.11371614819598    9.98250828520258   12.12588848514042
C         4.32514083671948   10.66530726113852   14.01200459801190
H         5.29698373542388   10.81182660557453   14.45904606823688
C         3.17759793212396   10.92678683501107   14.74361434532964
H         3.25494137702987   11.27897188582061   15.76160663401515
C         1.92911481570541   10.73094726383865   14.17578365004268
H         1.03621542395536   10.92944022206670   14.75079956501493
C         1.82244525095690   10.27635470153764   12.87209558437720
H         0.84660654783690   10.10990554611252   12.42499744838319
C         1.17681467942913    8.60360129858470   10.08909334087368
C         0.37532842982032    8.83147243275712    8.97463781671408
H         0.64909707357871    9.60910898974151    8.26800851047388
C        -0.75449506785350    8.05927585472380    8.75989444773382
H        -1.36935827140433    8.23934696419512    7.89022370003046
C        -1.08445932948278    7.04711954381737    9.64576327484727
H        -1.95812748720377    6.43794358278896    9.46800158125318
C        -0.28738800395130    6.80698344115154   10.75504432110525
H        -0.53629034255398    6.00888172502839   11.43969060742812
C         0.83971622004744    7.57766520516244   10.97223686872800
H         1.49053895885084    7.38383459145598   11.82122465897812

