81
CSD_code = KIHTAZ | q = 0 | S = 0 | Stoichiometry = C36H30N8O4S2Zn | MND = 6
Zn        4.10239999051696    5.31503457085892   -0.06865002950294
S         3.57951223361334    4.60099882673014    2.69460286419822
S         2.85813441955846    3.23180430717409   -1.65581412296475
O         3.19309265447138    5.24764411095198    3.91634876946980
O         2.86119640727228    5.06019811093030    1.49186455116622
O         3.99689982800978    3.42191848334806   -0.73862577775868
N         5.82627050865299    5.55133052243861   -1.25286809359855
N         5.54810375905622    4.89375940350763    1.25678230886574
N         5.19057085317482    4.71586667549173    2.50698646770262
O         3.14227492080516    2.44034131944333   -2.81879048138522
C         6.78779837935704    4.96888046407511    0.84917433927133
N         3.82930552047151    7.39066305899327    0.15322028627346
N         2.59963368106944    5.65399241876225   -1.35392805822902
N         2.21336578390001    4.65295681536730   -2.10993731545021
C         6.92461503678163    5.15048342771850   -0.59420380355382
C         3.17488167092497    2.85978298130045    2.85411280886671
N         9.08078525668310    5.47957951557305    1.28110807322321
C         8.10715469154900    4.86990354310771   -1.28756656907622
H         8.97734533856008    4.54326337270615   -0.74472662245974
C         5.86309734632832    5.68924294008206   -2.56898552557459
H         4.94334116061489    6.01635426739246   -3.03483767301032
C         7.96358680917997    4.89357292813436    1.72336991000560
C         8.13952365164756    5.01716875185854   -2.65898854892156
H         9.04303247781868    4.79811752406822   -3.20893903920168
C         6.99528552379104    5.44113475834590   -3.32264162917557
H         6.98040856837985    5.56886605251773   -4.39292059724035
C         7.91518519383885    4.27301585855584    2.97743405001736
H         7.00113020857926    3.81389875303243    3.31173213395125
C        10.20065427897899    4.89243527522220    3.30305573024953
H        11.10345714639062    4.92015639419912    3.89318561240781
C         9.04970610705253    4.27369502938573    3.76775620955470
H         9.03574048482169    3.79763152967620    4.73789422230860
C         2.17374712149412    6.88279367196414   -1.48494475155750
C         2.73957061971203    7.81056005729763   -0.50810933603703
C         2.16227799472073    9.05044769538735   -0.21255737504211
H         1.28532556775022    9.37001842332719   -0.74868348991988
C         2.72807697242378    9.84624138186192    0.76219383520579
H         2.29008069105514   10.80310398316634    1.00579234640982
C         1.22093505840214    7.33432507987216   -2.50542015431697
C         3.86045849043448    9.39836675060826    1.43038136913704
H         4.33218342752143    9.99060881185554    2.19767548653549
C         4.36675664058415    8.15814818734667    1.08840420458970
H         5.24324508977732    7.75850393962572    1.58036689332666
C        10.15289853222876    5.47749185626377    2.04703844043224
H        11.01939555293581    5.97360196792174    1.62681259363332
C         1.61963727505143    2.35720382391316   -0.69546408859553
C         0.89421601199525    3.02605062111568    0.27157842516133
H         1.03487092768999    4.08526779147522    0.41463373882498
C         2.26412007483118    2.46827142512354    3.81590070849462
H         1.86978943741027    3.21497595090560    4.48664170469176
C         1.88929292881124    1.13855320282207    3.89892237984503
H         1.18112782728882    0.82795294900819    4.65373678690694
N         1.27068358915335    8.62552197436521   -2.84785877402669
C         0.32372840998126    6.45293450503514   -3.12059306473388
H         0.30840871810574    5.41670552869197   -2.83066703435965
C         2.41558151900007    0.19839948706180    3.02082724333580
C         3.72035518596211    1.94106230433499    1.97822310921050
H         4.42338184778411    2.26399215862947    1.22729999874208
C         3.33534563071656    0.61512776445105    2.06358965315482
H         3.75180206923023   -0.10669434418770    1.37665265604037
C        -0.45570539154005    8.27585589556102   -4.45557734846053
H        -1.09393223496612    8.68903195844773   -5.22110089683024
C        -0.52186141132128    6.93644836271938   -4.10183379467860
H        -1.22464386650445    6.27430926069662   -4.58729293245424
C         0.46288905883847    9.07159409730419   -3.78847653484150
H         0.56072263849087   10.12603083623832   -4.01685935654621
C         1.46021348982359    0.99892827938542   -0.88841286199484
H         2.03726549865864    0.51677543366250   -1.66142233069705
C        -0.16370403196131    0.94691332693941    0.89120652388575
C         0.56623874990830    0.29808527225065   -0.09760504790667
H         0.43480687481584   -0.76357232522827   -0.25003325867033
C         0.00911238188091    2.31680948560546    1.06332746974412
H        -0.55404567254368    2.83173543244609    1.82757531618426
C         2.02357632627011   -1.24437499862697    3.10748784679331
H         1.12984563895500   -1.37210182274023    3.71208209412943
H         1.84366872491868   -1.64976125292600    2.11455793573410
H         2.82858375956406   -1.82159325835693    3.56208311205720
C        -1.13713565454369    0.20060111596354    1.75034406101246
H        -1.00550092280905   -0.87321646769699    1.65007526426770
H        -1.01209822768139    0.47913365929453    2.79423891010982
H        -2.15747883211149    0.44923876893381    1.45935787362204

