49
CSD_code = KIHVUV | q = 0 | S = 0 | Stoichiometry = C18H20Cl2N2O6Zn | MND = 4
Zn        1.98367865336273   13.60805012278296    7.24904878863936
Cl        9.84962805459719   11.09566570965907    0.92381401073214
Cl       -5.93029629823513   10.83768690299343   13.40549282452140
O         3.51462238745533   12.28453114161914    7.30055767866951
O         0.43560502148182   12.31711732808926    7.12028864402102
O         3.14828020764753   13.51071238871287    5.53693125070740
O         0.80927587694494   13.43533301510754    8.95292700630799
O         5.60167322469986   12.77990474277053    4.59377903768301
O        -1.66511212776392   12.69119756180663    9.83804799535593
N         3.08891907884560   15.20104057751423    8.17339298190015
H         2.76137239321346   15.23645303636437    9.13490400477899
H         4.09023718715902   15.04251323534212    8.18991016310429
N         0.90478658895287   15.27392772202025    6.42749631259379
H         1.23555665452886   15.36846927122106    5.47112425651026
H        -0.09876797133773   15.13177298806393    6.39897042567434
C         3.77537614743135   12.61316801245023    6.12308087915539
C         6.57054549064262   12.30506535540752    3.76797986890085
C         0.17086458207341   12.58452212003323    8.31273603423890
C         4.89981337360447   11.86815236303466    5.40429484794070
H         5.55343011463195   11.40530458070208    6.15403390187025
H         4.42902195940512   11.08077162291935    4.79915956913471
C        -0.97237890987076   11.81867106210753    8.97772048373715
H        -1.62802672960257   11.41400196379831    8.19670506923534
H        -0.52046439574142   10.98752640262987    9.53692011943823
C         6.96704803637138   10.97429324836928    3.67836705080814
H         6.50390620398485   10.21265115390704    4.28480604944209
C         7.20375688242995   13.25795210445802    2.96575264731673
H         6.88556212859543   14.28490198033770    3.04491760964617
C         8.20689632478681   12.89254897126914    2.09447520703216
H         8.69181832787240   13.63264514614451    1.47774177996429
C        -3.25946254272799   13.08907292652072   11.49588459500564
H        -2.92742431365673   14.11464953880865   11.48070898465595
C        -4.26633139152035   12.68324926267983   12.34479789767565
H        -4.73999683757326   13.38951660807179   13.00823776682683
C        -4.66766639505656   11.35495296290112   12.34163498472881
C        -2.64041614396194   12.17975876974730   10.63427078661419
C        -3.05614583234903   10.85177653133259   10.63997841499668
H        -2.60575061946590   10.12385685858112    9.98453074813643
C        -4.06701307417672   10.44254490867271   11.49424366197346
H        -4.38499185127326    9.41171304296191   11.49633039930857
C         8.59021680650508   11.56140277015806    2.01497122305176
C         2.75799434348659   16.43804264791924    7.47350528848746
H         3.28640465011202   16.43545492243983    6.51723825413230
H         3.04714555858689   17.33101154321524    8.04169340671284
C         7.97438011101843   10.60576613690266    2.80170045279052
H         8.27804108445459    9.57285221636203    2.73449834833804
C         1.25313505536788   16.45623174809367    7.20891016920272
H         0.72381806747306   16.39695703415497    8.16275418329888
H         0.97663485658775   17.38913773883783    6.70223393500382

