66
CSD_code = KIHWUU | q = 0 | S = 0 | Stoichiometry = C18H35B9OP2Pt | MND = 6
P         1.52330267187900    3.29723305006843   13.72369256681861
P         4.59264010481907    3.14347417617909   11.93987109969235
C        -0.13950043342432    3.86061383113262   14.26780707514378
H        -0.89360866505589    3.22423915699367   13.81348737652910
H        -0.29416582824903    4.88265842901884   13.93090589987931
H        -0.21503273229466    3.82116855752941   15.35417197047462
C         1.65628085627572    1.72241446799526   14.66877835328069
H         2.70159716258197    1.44052871135961   14.77536716759567
H         1.13785380778848    0.94357222103208   14.11792020735757
H         1.19826155909041    1.81940911662297   15.65156783073906
C         5.41356891022414    2.06664216733315   10.69173374440910
H         6.44501005825675    1.86158031994334   10.97610823518426
H         5.38908488654947    2.57339512599836    9.72972912817184
H         4.87178107016961    1.13026987769320   10.58510163850324
C         5.74894311891089    4.57689030491104   11.88960823700885
H         5.43401956335881    5.34019277100169   12.59719031491771
H         5.71768037820286    5.00762498834927   10.89083914862879
H         6.76661622661654    4.26127825856674   12.11529883039352
H         1.89112312170929    1.50411436372454   10.07327695876899
C         2.54786939527894    4.44550731533548   14.71630203738118
C         2.93787418455568    5.61392429990532   14.06702024658556
H         2.61808878703487    5.77205623652138   13.04013728820453
C         3.71484006650846    6.55699659550443   14.71345728501632
H         4.00967494460192    7.46145812608068   14.20071769752230
C         4.11843109170223    6.33810036896841   16.02133436009996
H         4.73130942218815    7.06831638787991   16.52938660041542
C         3.73426507533579    5.17970111893481   16.67479988187763
H         4.04661730198877    5.00738449376909   17.69483228320268
C         2.95207542297341    4.23795429974297   16.02799177534320
H         2.66785811974003    3.33832711709150   16.55278611856569
C         5.12426782072712    2.31675592126031   13.47972887047010
C         5.59327013304966    3.03032693187862   14.57804657838873
H         5.71198543358572    4.10118046771071   14.51820760002382
C         5.90863116971032    2.37891473763107   15.75682406353911
H         6.27509355867573    2.94769591862679   16.59885935947018
C         5.75529956914726    1.00693196801607   15.86080133147692
H         6.00485269907522    0.49969909604278   16.78085151832845
C         5.27349430541784    0.28770099431360   14.77844619624967
H         5.14340918283694   -0.78229327650357   14.85464811106306
C         4.95164577283000    0.93925913484719   13.60275359979130
H         4.55673087642657    0.37477089941891   12.76996854587616
B         0.18817457603021    4.59100888309766    8.92628421611581
H        -0.63931247861588    5.33428754535126    8.53107299213177
B         0.24435156315434    4.19756332299482   10.69034841341937
H        -0.47437527488094    4.77732290755934   11.43251388273203
B        -0.34486696251616    2.99304176148924    9.43002487031336
H        -1.47618916012083    2.67326730231302    9.30600724811691
B         0.79921815829869    3.07742042922680    8.05708980298022
H         0.38118380912818    2.73787208494152    7.00656713770587
B         1.77079411941969    4.54878770068310    8.22542763605131
H         2.24390870485614    5.21721517127781    7.37921973444045
B         1.57268399533077    5.13227886582842    9.86956508156498
H         1.81969933297725    6.24850001878650   10.18440015174757
Pt        2.22840671701471    3.60605966953569   11.52473216324812
O        -0.02401507161500    1.69974342243500   11.94620688072976
C        -0.26857165309648    0.31795572296167   11.85050385119037
H        -0.96191849743878    0.10421934997288   11.03324966555799
H        -0.70740182766362   -0.01957083292175   12.79240817434926
H         0.66076321119544   -0.23118317618378   11.66390331733230
B         0.31504457545151    2.45540750188353   10.84811160758660
B         1.01376878139820    1.74646601053984    9.27453678264843
H         0.68570715220763    0.70680268773123    8.79914360744661
B         2.43575047588172    2.91637073702706    8.53807809323016
H         3.30321349053701    2.36815167816269    7.95047499596909
C         2.79557539115895    4.09646493794629    9.53607719758729
H         3.81416670109978    4.49877724891171    9.50869536344874

