24
CSD_code = KIHYOP | q = 0 | S = 0 | Stoichiometry = C7H11Cl2NOPtS | MND = 4
Pt        3.60075613666979    4.85847182435746   10.05780724167240
Cl        5.52469999141260    5.72473234289593    9.28419538178925
Cl        4.58152481117275    2.92531491550530   10.66858333818945
S         2.66949781155341    6.85839014943446    9.42579172803295
O         1.22883975280252    6.97560205742875    9.63580322140465
N         1.86262263698686    4.13919631986556   10.75012293199175
C         1.74421296197866    3.77677842545393   12.02652065679940
C         0.54953868078428    3.32599246083399   12.55754347524944
C        -0.56295784687913    3.24302811949625   11.73477355324997
C        -0.42909112485646    3.61201163201374   10.40519434306772
C         0.80027336698372    4.05466376875481    9.95328074294054
C         3.46148850031755    8.28204046245724   10.23206072141018
C         3.00869875599868    7.32214040060798    7.69929407975224
H         2.64042359580506    3.83995286615229   12.63042785794296
H         0.49695671907508    3.04408632103988   13.59677185723754
H        -1.50980585283264    2.89567176956160   12.11854281119045
H        -1.26359184542450    3.55936134321835    9.72497807152972
H         0.93683642984403    4.35015782829204    8.92181972392249
H         4.52192606252827    8.22196628800000   10.01581625730993
H         3.28668078956804    8.20029054266990   11.29964636151517
H         3.02111051115455    9.19557671698093    9.85041471417938
H         4.08384839032992    7.29451493867026    7.56676063359283
H         2.60049797203355    8.30861079600950    7.51416942143918
H         2.53021279299334    6.59274771030030    7.05458087458897

