89
CSD_code = KIHZOQ | q = 0 | S = 0 | Stoichiometry = C43H40I2OP2W | MND = 7
W         3.46887229176680    8.01917398097781   20.40713771896171
I         0.69662814208800    7.67205531373790   20.81963115732039
I         3.82327110420147    5.23955227716934   20.38130192249978
P         3.57452850239021    8.04813016404304   22.90182268832742
C         2.71734639041760    9.49341797609872   23.60407680163296
C         1.46184138626642    9.34760790763976   24.18786279177840
H         1.03195008820309    8.36223449200251   24.30488618233106
C         0.75896384998242   10.46288926271238   24.60571330558374
H        -0.21671148232987   10.34127715531592   25.05140499689826
C         1.29794928400727   11.72775912505418   24.44282754500029
H         0.74633069576703   12.59743875631911   24.76738886943776
C         2.54098057057290   11.88034517331706   23.84915618696098
H         2.95795779032499   12.86665425043162   23.70711676115646
C         3.24323477276336   10.77137869875625   23.42006583157598
H         4.20260499981359   10.89479445392322   22.93409849753634
C         5.31090462113869    8.22330932088456   23.45294759617115
C         6.22089473016688    7.31819050172184   22.91072257830707
H         5.88279955923109    6.56701587973808   22.20837865427120
C         7.55124001172895    7.35157800550280   23.28542355860872
H         8.24689966627382    6.64157319955601   22.86242680349849
C         7.98812387049666    8.28961676129447   24.20617876778184
H         9.02831940883476    8.32419790838267   24.49347626841783
C         7.08424609235994    9.17488244694858   24.76900006772486
H         7.41702416898047    9.89615019882805   25.50120582258384
C         5.74958977041008    9.14034435413737   24.40334816275441
H         5.05362788046459    9.83108201080018   24.85921812743096
C         3.03657430572209    6.74591981737108   24.08395940475010
C         2.22236557727124    5.68576247848212   23.70607641940424
H         1.87474911083938    5.58166579827424   22.69051738715251
C         1.83109312837963    4.74267181098701   24.64122222753976
H         1.20106835347094    3.92284320477794   24.33261520028484
C         2.24481354672236    4.85147466534855   25.95623459408278
H         1.94169179118965    4.11343453824090   26.68374564394178
C         3.04833122051590    5.91387084691821   26.34120041959976
H         3.36978879534019    6.00767935974806   27.36834503981925
C         3.44272080168626    6.85674505060763   25.41332007990392
H         4.06766882855192    7.68386591617276   25.72066357490655
P         2.74763690309256    8.06444855533692   17.99973950263377
C         4.06888379877536    7.86875797817340   16.74370057934983
C         4.36082591230083    8.78266422697841   15.73807223830617
H         3.82448625593396    9.71843544819947   15.67163922756247
C         4.74313210040552    6.64892747146937   16.77389330032891
H         4.49142772695441    5.91417310648468   17.52610748323507
C         5.71663569397664    6.36231157351181   15.83660321258544
H         6.23237048915201    5.41445925833630   15.87170185683138
C         6.02550649511674    7.29007275029998   14.85479654984038
H         6.79019603219396    7.07281757701394   14.12407771679978
C         5.34213243056344    8.49311180338977   14.80493950391037
H         5.56771629585109    9.21242134582779   14.03087085196198
C         1.53909998096571    6.98330633010597   17.14297974366309
C         1.14382640135653    7.36057283719537   15.85959925534058
H         1.51866251237160    8.28074396268743   15.43091422885824
C         0.27336696582782    6.56704951642457   15.14115885601771
H        -0.03367468467433    6.86914454364944   14.15046736618619
C        -0.20254548850678    5.38496765394768   15.68905707057933
H        -0.88484223162813    4.76668922467455   15.12504579774517
C         0.20089917788588    4.99939635797518   16.95407223771255
H        -0.16036540773206    4.07846250727078   17.38493923018100
C         1.07293855855245    5.79240528924915   17.68132089712501
H         1.37321920241463    5.46766288947338   18.66480189530216
C         2.05094241489285    9.71824185326426   17.69117681102745
C         0.67495293901625    9.92501993231975   17.65195158376959
H        -0.00015055931667    9.08174074795018   17.70437918290662
C         0.17238460532883   11.21057732570114   17.55879432896110
H        -0.89620622862115   11.36366664911200   17.53668130329216
C         1.03199332907951   12.29447866513162   17.50557887319138
H         0.63630238845170   13.29650393672148   17.43273094953024
C         2.40274763645123   12.09631330453754   17.56874060368948
H         3.07498910388992   12.94188320112634   17.55047937078697
C         2.91018832720361   10.81692529433300   17.67781311916664
H         3.97915845211369   10.65948355457766   17.77236504487320
C         3.06806044257650    9.92057352808852   20.51792097116362
O         2.88251079224642   11.07070724541475   20.57921774794975
C         5.46029154890070    8.14966583135259   19.84543428531383
C         5.07061488401789    9.39007121444261   20.12054610502462
C         6.74920502036578    7.53165613751391   19.40801778489199
H         6.56469331438428    6.51939844599934   19.03208931585437
H         7.40028058220805    7.43453128492973   20.28601946204735
C         7.47708403654968    8.33601512636304   18.32977070963292
H         7.83210351864632    9.28699556568742   18.71961605606112
H         6.81773395248630    8.53092289398208   17.48589355542461
H         8.33632311275390    7.77490850103035   17.96818636349504
C         5.75917353452307   10.71444278327933   20.16884611913288
H         5.05512178614341   11.52334266972993   20.39826480455739
H         6.18219599991646   10.92410992913505   19.17858437205798
C         6.88515329872754   10.72411828600813   21.20679288839774
H         7.60968099085699    9.93745210186149   21.00689780755626
H         6.48915181286505   10.56511704810830   22.20830085048625
H         7.39980021619990   11.68275167249754   21.18839337164948

