49
CSD_code = KIJCIQ | q = 0 | S = 0 | Stoichiometry = C22H20MoN2O4 | MND = 6
Mo        2.34792250493213    9.43792752951637   13.95898012072330
O         1.21610336842304    8.87463555915112   12.56544479042655
O         2.91004481704672   10.57034620716886   15.35244677247573
O         2.22759416675774    8.08210113781148   14.88812883709658
O         3.70412735880481    9.55812216393064   13.03036288150618
N         0.04847092747176    9.80016076723268   14.71410343736820
N         1.98422518640057   11.73707655098733   13.20349574308516
C        -0.50453078222334   10.26525870921374   15.81534080289063
C        -1.78944149805614    9.84997621041605   16.23265442384014
H        -2.18996263880745   10.25518320579265   17.14959004682843
C        -2.51062343654576    8.96269101634868   15.48656545202543
H        -3.49723819961329    8.64411497396762   15.79099548652100
C        -2.58513570414054    7.53195661913802   13.44455140868055
H        -3.57470034370646    7.18308851854810   13.69711308392025
C        -1.94274903424001    7.08103110284594   12.31930517177643
H        -2.43450819912114    6.37066917899818   11.67134378296812
C        -0.65577239745181    7.51336292559006   11.98718356030573
H        -0.15593115850831    7.13699560642922   11.10715939389076
C         0.01182074815147    8.41366893382882   12.80337731236702
C        -0.64513861119893    8.90248739154864   13.97268257479296
C        -1.94862920979069    8.45266301240170   14.29772066602574
C         0.25128028679761   11.22622944699963   16.67945520836466
H        -0.44925062761752   11.91367411587874   17.16085924825367
H         0.94923246193379   11.80665737885239   16.07252509230816
C         1.02482207024230   10.44543216347523   17.74780830161630
H         1.70837816527025    9.74538162199663   17.26730165017248
H         0.33959075147143    9.88809809106044   18.38352339097468
H         1.59946315444545   11.13005546386207   18.36656234839511
C         1.51897395900779   12.28962009271483   12.10211448241710
C         1.93424543823300   13.57432665151295   11.68417746055900
H         1.52876754389633   13.97452481823104   10.76721912506239
C         2.82134986246874   14.29597196130815   12.43002150810278
H         3.13874262088305   15.28305370543409   12.12589719763949
C         4.25109303001161   14.37198145780826   14.47267158659846
H         4.59976734392796   15.36153166161083   14.21975986386277
C         4.70198845287809   13.73014911997585   15.59825033536339
H         5.41254183062187   14.22212488442536   16.24585526283916
C         4.27036978898550   12.44296384937662   15.93049631396437
H         4.64687985863443   11.94345685499099   16.81064596741549
C         3.37060331567188   11.77472777791099   15.11425955120127
C         2.88167096907225   12.43116687510881   13.94472830018972
C         3.33109143794547   13.73469715561184   13.61932881928056
C         0.55929820001081   11.53274430736637   11.23750412969592
H        -0.12834671703458   12.23264133542047   10.75554667062411
H        -0.02100893618190   10.83466464121521   11.84435475212524
C         1.34076345916020   10.75929312818719   10.16954805149038
H         2.04094856140436   10.07630565779312   10.65062852876220
H         1.89813166365234   11.44470301896185    9.53406885976866
H         0.65686418961959   10.18410544205179    9.55044224344270

