118
CSD_code = KIJDIR | q = 0 | S = 0 | Stoichiometry = C48H63ClN4PRh | MND = 4
Rh        4.11373780044489    2.33814176167092    4.66083971416927
Cl        2.22452299747367    1.00201777083362    4.85983121133514
P         5.88844684028701    3.63521978789234    4.41015936954119
N         3.85930501821476    2.98078404364218    7.59061002546283
N         2.30663022816386    3.95650906019371    6.46906754772281
N         4.23795628806880    1.43945133181692    1.75238774121909
N         4.92471356223034   -0.10255606581728    3.08042416916735
C         3.42579827011404    3.21355653996613    6.33078833433541
C         2.04255944719575    4.17962648304848    7.79423635824350
C         3.01693551525754    3.56424748149863    8.49971935588606
C         4.52994435723430    1.18863277228118    3.04967468193476
C         4.86578502015161   -0.65073372485962    1.82753311089217
C         4.43130531138867    0.31746154882477    0.99231930045342
C         1.48041511603544    4.39414625932547    5.36785391159120
C         0.09241260812802    3.75627569525788    5.43775395387350
C        -0.74881687968967    4.20555590224081    4.24856174011304
C        -0.85977317312777    5.72712389619787    4.20852457995083
C         0.52596626571827    6.36216147202672    4.14219778711482
C         1.37609455931641    5.92010835323522    5.32909916130513
C         4.99488469653268    2.14799172037042    7.90500337190407
C         4.53178978726888    0.76789444106624    8.37910470291013
C         5.73997858953735   -0.12174268107256    8.64905470733057
C         6.67313576809169    0.51966567365919    9.67182841734399
C         7.12212549037759    1.89673023383100    9.19151480914825
C         5.91143586602629    2.79091027809688    8.94479311000621
C         3.69152244689483    2.69156335840474    1.28715018613607
C         4.21372518764081    3.08516464923043   -0.09261390288844
C         3.65789220265546    4.45281825143577   -0.47896998377205
C         2.13196686324888    4.41912642729524   -0.48711136720096
C         1.59777338087309    3.99585044935215    0.87816835922185
C         2.16084764521919    2.63888929260546    1.28396681059131
C         5.27651522673241   -0.83482706658289    4.27571139523704
C         4.19177275657568   -1.86199335270897    4.61132406773146
C         4.55938490139833   -2.63270746329775    5.87375441930515
C         5.91710527985347   -3.31283179694916    5.72263149937267
C         6.99624030915319   -2.28829475026928    5.38459710850517
C         6.63065461360626   -1.52673779261080    4.11519308365475
C         7.31369296344385    2.74077699059913    3.70792949250872
C         7.56470976839958    2.72372378395458    2.33967464078329
C         8.55434579098575    1.91116420836533    1.81810575496180
C         9.30454667578612    1.10115972732121    2.65445434688757
C         9.03576885231289    1.08089757347329    4.01466160404745
C         8.03264367043344    1.87842778851840    4.53253972801274
C         5.79652587059070    5.12679884835534    3.33644632694620
C         4.54185423088150    5.67351966342349    3.10110876899150
C         4.40457787170563    6.84472655201271    2.37768878411620
C         5.53037165511123    7.48012465313672    1.88122396873890
C         6.78767263691543    6.95018184173816    2.12643760764036
C         6.92425253943187    5.78670789109231    2.86072369637332
C         6.65294156004575    4.60363054571844    5.78203164844007
C         5.77460791124345    5.43727032026567    6.47019506791600
C         6.22142742685135    6.25683299009296    7.48768413246743
C         7.56337311688999    6.25303591041891    7.83626493856639
C         8.44681293672854    5.43956435022763    7.14860906982339
C         7.99944326376038    4.62531002730345    6.12140031898464
H         1.19889316498844    4.74361026924722    8.13454171513602
H         3.16255054687275    3.50067350316736    9.55793921396448
H         5.12505745716781   -1.66783607305713    1.61964968954132
H         4.25100992011263    0.28320938437837   -0.06156956188550
H         1.98219709193305    4.02222288144806    4.45855524296791
H        -0.40170484239164    4.04331312524147    6.36901951238364
H         0.21071766021273    2.67125608718924    5.42847056344818
H        -0.28433163017372    3.84889805107930    3.32758739426416
H        -1.74326932952987    3.76081044706667    4.31507341898967
H        -1.44927410845649    6.03547435227045    3.34261439904806
H        -1.37646330920136    6.07787496391030    5.10537516907714
H         0.44015624117056    7.45118244076538    4.13651954516722
H         1.01414876772878    6.06017645197638    3.21330303448815
H         0.91427003355956    6.27550985616219    6.25352257064038
H         2.37443948576956    6.36126687428586    5.26326263018839
H         5.54253591962395    2.02706804869446    6.95363549984846
H         3.89221637919927    0.32903547750404    7.60929461173618
H         3.93872410220523    0.87574403070958    9.29074133418743
H         5.41004948323447   -1.09888883801876    9.00748707690492
H         6.28684982302104   -0.27108112586554    7.71549753620549
H         7.54258211209135   -0.12100555911133    9.83321162927018
H         6.15253771736946    0.62143075469450   10.62692755931117
H         7.69167357229717    1.79518992657358    8.26474522497533
H         7.77607374649734    2.35909364366094    9.93348498942516
H         5.37087043371528    2.92007621902941    9.88494701514419
H         6.23115899154291    3.77490443649265    8.59855753613760
H         4.01032325228779    3.44503841891048    2.02059537107925
H         3.89380447475357    2.35361703184434   -0.83759522808724
H         5.30596725028309    3.10672482141582   -0.08533364062177
H         4.00517731786803    5.20126014706431    0.23692978940685
H         4.02929483482345    4.73575446687056   -1.46621233213718
H         1.74142387093207    5.40453086836044   -0.74960171448586
H         1.78908089655779    3.71202260692452   -1.24620640829941
H         0.50698332145346    3.95380392083501    0.85351454398176
H         1.89203998872783    4.74150527953078    1.61950312872776
H         1.81910070245206    2.35823557889605    2.28405325811374
H         1.82355899720620    1.86991489155632    0.58448199460559
H         5.32462594158991   -0.08485869046599    5.08403862896666
H         4.07922233415261   -2.55629722487994    3.77487325835050
H         3.24412721415681   -1.33829423274371    4.75000733231257
H         3.79061465936900   -3.37944399081813    6.08092867460779
H         4.59014100202540   -1.94351283828123    6.71848863874555
H         6.17732823307385   -3.83439049731048    6.64618862351044
H         5.86378510381518   -4.05670596849531    4.92377072590080
H         7.95745009900597   -2.78912740571682    5.24792742388466
H         7.10317483912345   -1.58506039233591    6.21278553932692
H         7.39621140168614   -0.78512672258381    3.87901596291772
H         6.58049593170298   -2.23434688816614    3.28454186648125
H         6.98256170633638    3.35731409172437    1.68456985732320
H         8.74472065897941    1.91020066553349    0.75408323904975
H        10.08531582131302    0.47542034948789    2.24736677817155
H         9.60652014230409    0.43595224682146    4.66863226476334
H         7.79416886160427    1.83583340364160    5.58791420883689
H         3.67520337397311    5.15992287035687    3.49947918635247
H         3.42374425807381    7.26408949346278    2.20155728038003
H         5.43029428534971    8.39132037136725    1.30964570109654
H         7.66655790105790    7.45347766939309    1.74922727161175
H         7.90766318786941    5.38699280522588    3.06658486119232
H         4.72918817530666    5.43408961150625    6.19112950807026
H         5.52650486898323    6.89775975071424    8.01155873224053
H         7.91867429801161    6.88620588936306    8.63600661683216
H         9.49587693203524    5.44238880312642    7.40857371371880
H         8.70954552529175    4.01432526109815    5.58351804740344

