81
CSD_code = KIJFOZ | q = 0 | S = 0 | Stoichiometry = C31H44Cl2N2ORu | MND = 5
Ru        1.58037420914636    8.19806000685663   17.90385596434445
Cl       -0.10883813392833    9.59399839623403   17.21592628852523
Cl        3.29086309557904    6.72620160168091   17.44868979901523
O         3.03137017151417    9.92536322413988   17.60824160443377
N        -0.14043774423585    6.09617732721512   17.04447681674853
N        -0.27399042563029    6.12517464121017   19.20540287549633
C         0.29579208369799    6.70307457548279   18.15169773999050
C        -1.07426339223067    5.01287470836922   17.31120779625558
H        -0.67269057705581    4.06207080337124   16.94744054063995
H        -2.03360722544051    5.20024761070198   16.82058487183715
C        -1.18731544610486    5.04642105429293   18.83742171789033
H        -2.19959328464012    5.28024557541708   19.18198257553659
H        -0.87196727446780    4.11014081305558   19.30761903059758
C         1.89239418220806    8.73911206862013   19.69172861136649
H         1.48690697987611    8.28661798120612   20.59648842185637
C         2.71105005913158    9.87668141764039   19.91182545012513
C         2.93834199354690   10.41331993086124   21.18916327715666
H         2.47530404130746    9.93154488530428   22.03817690992952
C         3.72803734685874   11.52960932081007   21.35677926610771
H         3.89371611074716   11.93280731805399   22.34438062645540
C         4.31034027475303   12.13874106639391   20.25490766919134
H         4.92574217299947   13.01625405934765   20.38432812783349
C         4.11464561968208   11.63389862492127   18.97764608430877
H         4.57939270165730   12.13399323510089   18.14217308619633
C         3.32358813651862   10.51109137963989   18.79689948359106
C         3.71725286349062   10.30084651207839   16.41564303840336
H         3.69437878822845   11.39668321293899   16.32322615244102
C         2.93400081869585    9.68103383907638   15.26491352482588
H         1.88830689356260    9.98745146829260   15.32035227468166
H         3.00817620300607    8.59347290108645   15.32823963977469
H         3.34345658057355   10.00097951427846   14.31034917927347
C         5.15295264285773    9.78061159108811   16.44825219263224
H         5.13801442214775    8.70057897582389   16.58849308662863
H         5.71434231441205   10.22431690166154   17.26728417061293
H         5.65380634517147   10.01090635679596   15.51181573809181
C        -0.12857440574733    6.43754576286575   20.58192444186973
C        -0.98619285136427    7.37574463468739   21.16302566699398
C        -0.87927902693991    7.60453247042428   22.52869394960107
H        -1.52959411244269    8.32363848778889   23.00243955813692
C         0.05399667190762    6.92733158235677   23.28998256042967
H         0.12208159655183    7.11564795968739   24.35155433050338
C         0.91067667945400    6.02120198210800   22.69482253404726
H         1.64921533966686    5.51459892293331   23.29677255518824
C         0.83517841457925    5.75943361245603   21.33304913998100
C         1.81019409325295    4.80671830445182   20.68541837001936
H         1.57540259012315    4.72579938714202   19.62049055344558
C         3.22849657185294    5.37160470624493   20.78756677867391
H         3.52768762521470    5.50468840081606   21.82423238657036
H         3.27557048452135    6.33532097630685   20.28248371306323
H         3.93226587887067    4.69833558549424   20.30431603485686
C         1.72393577402504    3.41296507483002   21.31101074637107
H         0.70325475086781    3.03550823683667   21.27447149241580
H         2.04163776158468    3.43215767775706   22.35029335019309
H         2.36806930451127    2.72230764001530   20.77163311014049
C        -1.97410101556677    8.16108475396734   20.33560578884187
H        -1.88111380187672    7.85981311883391   19.28836409478445
C        -3.40957016217152    7.89833029323699   20.79632047969539
H        -3.56446124787876    8.26187044166032   21.80906153001437
H        -3.63265158203719    6.83266349656675   20.78052906838485
H        -4.11058663225102    8.40863199772875   20.13991873318331
C        -1.64018773053097    9.65271558569300   20.39952401338754
H        -0.62950174290366    9.81736529950858   20.02918764305185
H        -1.70777671039645   10.03279633097134   21.41575328841990
H        -2.32784300868347   10.21279514292057   19.77079094524984
C         0.25713913984836    6.47886967849771   15.70648254754797
H         0.96489785459055    7.32322564400320   15.83028106338475
C        -0.92647782665640    6.98202820472647   14.87876027082088
H        -1.64605812000844    6.17325144943699   14.73024541651600
H        -1.41713649566568    7.79656576726431   15.41603454920126
C        -0.43070002051802    7.47309697787253   13.52203653212376
H         0.24023506161081    8.32182379073445   13.67054055309583
H        -1.27709376926143    7.81935009146858   12.92602870770262
C         0.30767257918317    6.35968846498861   12.78457228684053
H        -0.38445990218266    5.53844749506350   12.58228944572195
H         0.67416262367435    6.73006624513473   11.82531093732187
C         1.47550031189474    5.84261965814849   13.61982437557779
H         1.97984205087383    5.02927215476278   13.09471834438704
H         2.20289652463022    6.64407755094330   13.76523040590737
C         0.98992084428178    5.35010593169969   14.98004787188616
H         0.31471261424802    4.50272479530473   14.83818301235355
H         1.83867347553957    5.02533533456900   15.58616318932439

