82
CSD_code = KIJFUF | q = 0 | S = 0 | Stoichiometry = C32H44Cl2N2ORu | MND = 5
Ru        7.04858532059074    2.64524680411778   11.20554924425667
Cl        7.95260870172378    1.16244189724679    9.69434928776155
Cl        6.95184466437586    3.89988420314063   13.13507296493706
O         6.38495755287026    0.86285332059848   12.46280850320054
N         8.94853988258003    4.54725765034836   10.13961339692176
N         7.07843334420886    4.83500691464335    9.07933223951692
C         7.66739117777309    4.16063362910363   10.06104718417959
C         9.28705605718326    5.57907893754817    9.16862357919949
H        10.08113031604108    5.23370707523214    8.49977047919060
H         9.62661046228327    6.49183254472644    9.66794889523226
C         7.97010214455337    5.78233517520877    8.42027643702673
H         7.57651942111948    6.79981772946927    8.51311535237895
H         8.05323681275667    5.54641794157315    7.35577376411040
C         5.19966438470665    2.54482580723244   10.79109725402635
H         4.64501794691210    3.18039854102685   10.10284806639195
C         4.41648909646257    1.56645737989073   11.45173650963485
C         3.02893435031081    1.45337511456318   11.26525813161682
H         2.54470615619808    2.13945466632079   10.58551476943901
C         2.30225349875431    0.49406003872786   11.93515793577168
H         1.23599609586513    0.41807076535879   11.78436883301992
C         2.94016510706593   -0.37623926561679   12.80758725999663
H         2.37049336272467   -1.12581431007543   13.33598271669996
C         4.30978977392140   -0.30021995152725   13.01318501434513
H         4.77441862792798   -0.99024508275918   13.70032101446788
C         5.05113952840386    0.66017930357351   12.34418117319746
C         7.21385830992418   -0.05929161018694   13.16610160672625
H         6.76004927077617   -0.27220759860796   14.14509755398567
C         8.54371088763740    0.65537643478798   13.36739324661493
H         8.98467747202403    0.86341742454487   12.38921179025383
H         9.23313700359927    0.03341915684590   13.93158336338967
H         8.38373816917850    1.58706933725664   13.91167257247609
C         7.38925273694192   -1.33930022337407   12.35158937000024
H         6.43760160538156   -1.84472700165164   12.20379387377991
H         8.07162666947056   -2.01421147176021   12.86108543805533
H         7.79940013841995   -1.08918393022118   11.37414438882330
C         5.71629735324198    4.81991814447037    8.68497907637241
C         4.80397147506105    5.61592643293970    9.38008741879761
C         3.48502535863203    5.63683441595511    8.95146251593638
H         2.76814328671620    6.24411166650863    9.48536459311311
C         3.06620088778783    4.88470335898075    7.86291993597691
C         3.99171207164234    4.08689697586925    7.20384865293099
H         3.66844388513379    3.48085662377278    6.36961220876917
C         5.32015702515951    4.03902749220689    7.59917079675765
C         5.23853978162540    6.37246118503673   10.59622876652297
H         5.68368870761853    5.68258422124723   11.31552798379901
H         4.39209591047925    6.86719834509319   11.06378992465488
H         5.98543922576987    7.12561122753806   10.34874849340271
C         1.64129492953199    4.92769656857443    7.40032612668513
H         0.99154917632048    5.32695986386892    8.17493486456118
H         1.29522171846203    3.93334394672040    7.12603831636713
H         1.55450778985104    5.56546614166378    6.52033748769875
C         6.29943565681435    3.13767161242348    6.91523430407508
H         6.99915286203415    3.70796057478044    6.30454857993262
H         5.78311306691443    2.43228130688915    6.27025580427110
H         6.87168714335692    2.58134284095056    7.65698242554039
C         9.83082548849099    4.18151323740222   11.23545188846672
H         9.31474321640558    3.32432934648949   11.71049241586210
C        11.20540542612658    3.67585123499275   10.72719483799165
H        11.33832317504457    4.03942729512309    9.70186733912801
C        12.35802603445777    4.27132324348607   11.53893071025081
H        13.30817903092591    3.83523477465063   11.22622371594301
C        12.10066137115422    4.36444708271728   13.06504899541715
C        11.32250666950285    5.65449415593463   12.72488590339735
H        11.32374653488883    6.45821034638880   13.46245049397812
C         9.90373410659737    5.33722704834410   12.26918810012904
H         9.47179783272271    6.23916933099983   11.82884970642284
H         9.27717114074789    5.08629520181814   13.12659209881546
C        12.21178335543514    5.80077398027391   11.48339562105606
H        11.74314617366959    6.21067684032555   10.59100803643021
H        13.13657541619260    6.33958573839032   11.66940766999778
C        11.26346154730595    2.15101704492445   10.65575899324542
H        12.17544163785303    1.83779005890083   10.15134554992754
H        10.41555210334827    1.76742968465844   10.09064443088882
H        11.25811433053306    1.70772378793859   11.64677490179656
C        13.39914055447839    4.65349669584005   13.82109190554281
H        13.17391761516941    4.97820112436867   14.83522330579608
H        13.99603461503406    5.42471464234713   13.34488357907249
H        14.00163905850692    3.74872129016688   13.87925157171707
C        11.38363680858391    3.25951769029731   13.82824924722367
H        11.23867706450539    3.57924211735225   14.85927954577534
H        11.99268910711444    2.35711121297227   13.83948268485614
H        10.41125722239693    3.01764550010983   13.42243526408773

