82
CSD_code = KIJHAO | q = 0 | S = 0 | Stoichiometry = C42H34ClIrO2P2 | MND = 7
Ir        2.12225387081589    6.18347836096168    3.49396813465624
Cl       -0.24966027378291    6.72949745496966    3.90918460366357
P         2.86376882827514    8.40527112882766    3.73321576557538
P         2.28362356547892    5.67739469348555    5.73156739796474
O         0.01095881420958    4.35083762867689    1.15064613253945
O         5.18334344493739    5.11406494064335    2.15397852602305
C         1.06468600253377    4.73164920749949    1.63169029836449
C         1.78056738263137    5.95022624404367    1.21923753922515
C         3.14329286668406    6.08169123109542    1.40305876911871
C         3.94791262979973    5.10388562758736    2.14156358032959
C         3.12765098250669    4.21471943567951    2.95236190782217
C         1.75110135336388    4.09484531504413    2.76211676058216
C         4.58437131770995    8.58842907702095    4.31040785189705
C         1.98761954755186    9.76512628298261    4.59136912777279
C         2.83388919481048    9.18144801036717    2.08197072925315
C         3.95819001643220    5.54827043893975    6.44464825734726
C         1.48626316861095    6.79343151496645    6.93441415348681
C         1.54388903959644    4.04938625369758    6.08270250636081
C         5.58956741830526    7.93800054036685    3.59642781791016
C         6.90262011496663    7.99431400288480    4.02501274262640
C         7.22699604453687    8.67760043173413    5.18516845225955
C         6.23195997647039    9.31286037939510    5.90862486919823
C         4.91884180877803    9.27371768232356    5.47486696478763
C         0.77140879883062    9.59253049195224    5.23548135086720
C         0.13453869111439   10.68062006904800    5.81043455039320
C         0.70235280339203   11.93993610709337    5.74389489324280
C         1.90756520266769   12.11989923364056    5.08129126576022
C         2.54460481823826   11.04140552042366    4.50047717843458
C         3.93926366268233    9.69938231279068    1.42061096623293
C         3.78292087667162   10.27302022460590    0.16952755811839
C         2.53217530718784   10.33636356113933   -0.42090790599137
C         1.42455005635188    9.83353203874702    0.24479550895911
C         1.57311168566863    9.25913528955232    1.49211026593650
C         5.07614705275428    5.47258116090284    5.62494650811568
C         6.34033363003022    5.36091224381049    6.17869822510733
C         6.49678666495638    5.32320266674849    7.55266001572656
C         5.38303369617391    5.38588352737550    8.37686031553302
C         4.11955427237349    5.49527334222361    7.82911478641996
C         2.21966676865566    7.89425093663103    7.37241613211999
C         1.66213927700214    8.80019867677857    8.25302317568230
C         0.36135788244957    8.62190334329983    8.69653841565616
C        -0.37320635252839    7.53293379603521    8.25945461488759
C         0.18265192066112    6.61818506111481    7.38126476071695
C         0.23433554925086    3.81178830885482    5.66453211474494
C        -0.35819075951110    2.58479692032898    5.90012224173059
C         0.35181141816282    1.58025552346881    6.53815169969191
C         1.66002950927449    1.80450108476101    6.93303391828339
C         2.25905733972809    3.03159452379907    6.70549132533854
H         1.26034962223667    6.61924688840052    0.54158305316767
H         3.68659305650286    6.85750302391232    0.87110973119435
H         3.64336315444831    3.52599441341735    3.61503339299242
H         1.21385523064074    3.29385264969823    3.26029895082093
H         5.34949418940338    7.36869926197123    2.71125571817745
H         7.66855366833992    7.49149927662734    3.45437567620673
H         8.25066732581726    8.71343772454889    5.52687942361463
H         6.47799363175775    9.84450188725728    6.81635038523209
H         4.15516800572344    9.79103000069267    6.03727256390085
H         0.31116870184401    8.61789013218714    5.26321612152153
H        -0.81301491000637   10.53701144047829    6.30716924352166
H         0.20423808337000   12.78595809314695    6.19411119735039
H         2.34648476844948   13.10449025798421    5.01060709674478
H         3.47646366735904   11.18510575029318    3.96966929088959
H         4.91917951486656    9.65378046001277    1.87409787081129
H         4.64496099577478   10.67085597848999   -0.34577769530230
H         2.41956853778579   10.77988392318519   -1.39893796007756
H         0.44704479240573    9.88708719326989   -0.21096604824219
H         0.71759255833535    8.86248449738236    2.02386354833069
H         4.96881117847080    5.49873876753692    4.55264538683004
H         7.19989284564304    5.30166072864061    5.52913482204687
H         7.48282988851038    5.23952089161870    7.98484571441513
H         5.50013810052965    5.34642460231771    9.44994698586503
H         3.25090161970160    5.53866351907875    8.47184918583706
H         3.23462931628221    8.02126593540943    7.02304355491398
H         2.23877263223451    9.64898144172106    8.59041302410689
H        -0.07729384373869    9.33155196953671    9.38205187298386
H        -1.38743413542726    7.39282856141449    8.60236532725270
H        -0.39885925892257    5.77535097725810    7.04415547641123
H        -0.30582687968921    4.58212740834476    5.13162906469745
H        -1.37186607288783    2.40942958826003    5.57225091395238
H        -0.10944038628951    0.62040270282600    6.71684507023295
H         2.22185703876416    1.01893382155619    7.41673586741028
H         3.28365647443946    3.19167438380112    7.00814940180562

