58
CSD_code = KIJHIW | q = 0 | S = 0 | Stoichiometry = C22H25Cl2IrN6O2 | MND = 7
Ir        7.64720163132957    0.96245901842124    4.23900290768549
Cl        6.31036119662913   -0.89307984727833    4.25474416493915
Cl        6.91663902697223    0.50256954380395    0.78985658361303
O         7.16601943837671    3.35106117278324    1.70105013402395
O        11.03914811632364    0.20312436606797    3.69835524644027
N         5.60308182448797    2.20266075461269    6.38475140873113
N         5.79284569452574    1.98649789702675    5.06594235475636
N         7.45344166990037    1.14542247599453    7.44129676918275
N         7.95461701336530    0.48050098491790    6.38052957664218
N         7.62082941820291    3.40241400140207    6.84375935250631
N         8.91751505814856    3.25307321599604    7.16704608884702
C         7.87393455800518    2.55424290539037    2.30333637157422
C         7.92066579853608    1.10841527882857    2.06147629839515
C         8.92827945158358    0.27842221204966    2.59425159309931
C        10.01116351600338    0.80819144595723    3.41829863404068
C         9.62886602283610    2.09427413241812    4.03296696134413
C         8.64263957537121    2.89895549784830    3.51206651048957
C         6.70782443957085    2.36503277080208    7.28318702502027
C         4.59584201020053    1.95990117547764    4.49856103929952
C         3.61048151519720    2.16223000211813    5.48174855829801
C         4.27696991521891    2.30749593026352    6.67329616912835
C         4.39623401617465    1.74689009359112    3.04899316037411
C         3.74771490480959    2.52342150385822    8.04344946760630
C         8.67599219374329   -0.52494074819500    6.85256374094421
C         8.65139268062950   -0.49094973565386    8.25718143801058
C         7.87762965388110    0.58879346656280    8.60449584581437
C         9.35959106680069   -1.50734905739279    5.98362457028423
C         7.52989758383163    1.12581988042899    9.94323742238702
C         7.38022712054994    4.62087994827392    6.28201576534391
C         8.60016363937143    5.25369812069852    6.22432820068634
C         9.52853030107519    4.35674498615522    6.78893569158232
C         6.05460354163741    5.09904557604035    5.81738961269187
C        10.99043697259689    4.54397111047867    6.97140440531342
H         9.03841464471190   -0.72933608178110    2.21088337703594
H        10.26332112882066    2.45447406524702    4.83487048618007
H         8.50488605896633    3.90814257239706    3.88311037077166
H         6.29473042740591    2.62501814307889    8.27091052682180
H         2.55182550347899    2.18715276953232    5.32827893759330
H         4.60789254574232    0.70649451815592    2.80390592896462
H         5.07416992273218    2.37067692504496    2.47054116540707
H         3.37045052685798    1.97321185839398    2.77350206174116
H         4.13018918752918    3.44449943072405    8.48440722517401
H         4.00966819856846    1.69016566647591    8.69528299956588
H         2.66476168850175    2.59176878879205    7.99669085867320
H         9.14302322011509   -1.17145853644806    8.92078405027770
H         9.74955365291472   -2.32634257824890    6.58024170075653
H        10.18294754455074   -1.03895319293190    5.44620055496227
H         8.65938122668801   -1.89493146972672    5.24618821777272
H         7.90252564123807    2.14361245409616   10.05476946768969
H         7.99216053618912    0.50522348601412   10.70502831456740
H         6.45228387994889    1.12358955250751   10.10761812240110
H         8.80029557525407    6.22885173665254    5.82994650799682
H         6.12362152932508    6.15944446038294    5.58972109529743
H         5.28426818240873    4.95400194093572    6.57337084642152
H         5.75146162998460    4.57694792514732    4.90980745911164
H        11.42379388864192    3.64131376274373    7.39259715812561
H        11.18337422553357    5.38057246479332    7.64159912616503
H        11.46601886800310    4.76156925827876    6.01630037142801

