71
CSD_code = KIJJOD | q = 0 | S = 0 | Stoichiometry = C36H31IN2Pd | MND = 4
Pd        3.29745569092201    6.30257823067384    5.71147881449788
I         3.55014651278815    8.94896097236145    5.75203418461428
N         3.77907063141725    6.26524093096969    3.76724975294124
N         2.81395172420023    6.29920300090222    7.65555419532023
C         3.10113898663654    4.27688644100070    5.68027605045437
C         1.88397234891444    3.65780958718631    5.99264438957671
C         1.75852826236819    2.26769730805993    5.98256471548185
H         0.81557730513462    1.82016367109435    6.26487345944728
C         2.82663852948134    1.46660483838158    5.63510466945921
H         2.72159770853798    0.39175226272292    5.61769212627522
C         4.03069520771599    2.05656975081302    5.31020684551878
H         4.87011230546910    1.44422860553655    5.01093222710618
C         4.17656448830374    3.44426822727973    5.34479605624697
C         5.53131577746549    3.95728554708152    5.05627478341733
C         6.60717682575672    3.36101592695564    5.71762639582243
H         6.40161349281274    2.61225205873663    6.46920119285711
C         7.91240226907524    3.71558078816867    5.44550271841804
H         8.72307000849062    3.24799803312398    5.98422812361928
C         8.17873492366930    4.65947186212427    4.46520395997806
H         9.19619590388259    4.93206073885065    4.22963352714196
C         7.13305254290044    5.24107313262185    3.78102342698641
H         7.33733947239030    5.96900174598626    3.00892168110876
C         5.80243553565753    4.93039481804041    4.08544372908423
C         4.80226394945992    5.65345935858453    3.30661978712729
H         5.03914893128629    5.74875079965818    2.24335707497070
C         3.10950393383688    7.14137970865980    2.87863712925808
C         3.83496045455398    8.08294179103914    2.12880927410052
C         3.14642704408525    8.89390865450300    1.23530769496561
H         3.70421437209131    9.62116389789867    0.66425988895138
C         1.77890248837871    8.79885025412727    1.07847180152700
H         1.26728809499915    9.43111392053205    0.36904708322356
C         1.06491497720415    7.91894163042409    1.87010950816195
H        -0.01130851415317    7.87166540909937    1.79322266520800
C         1.71053175961455    7.09983786966110    2.78093506546656
C         0.91671168454002    6.21644003108333    3.68992296465542
H        -0.14389936773965    6.27278195170795    3.45625151890368
H         1.05642120716544    6.56587963709044    4.73353622021217
H         1.23832561421063    5.17492478854483    3.61482262669742
C         5.30307598582880    8.34296646159554    2.31364068460953
H         5.89461313074102    7.87003541299343    1.52850298593354
H         5.65905555587872    7.99529373876970    3.28107267639904
H         5.47889198036246    9.41553042677181    2.26141779728842
C         0.65314604715708    4.41352496166034    6.30228942001794
C        -0.51604352433498    4.05762064965443    5.62645678350991
H        -0.45706512197714    3.30802490786580    4.85032051010882
C        -1.72902402406044    4.64814093033498    5.91515349475836
H        -2.61340186071673    4.36337152356600    5.36484753521172
C        -1.81064791441641    5.59310224035453    6.92669544519450
H        -2.75698228628172    6.04879973803490    7.17525688659558
C        -0.67395345037201    5.93978965519039    7.62494437969111
H        -0.73581294620599    6.66787849558881    8.42107812470146
C         0.57253561362831    5.38878565285231    7.30497282047981
C         1.69165977859922    5.88110091481204    8.10170036220132
H         1.47576145172418    5.98702431099164    9.16839494012087
C         3.63757455108620    7.00295155881106    8.56770657037447
C         5.00256380382976    6.69136004093249    8.65825381482347
C         5.79135898406009    7.34260178156846    9.59154081713364
H         6.83844821048236    7.08770342120423    9.66238852118076
C         5.25759935211108    8.31756443357859   10.41328193836658
H         5.87935947567634    8.81737877608191   11.14017327593231
C         3.93396895084424    8.67769141730730   10.26501899521325
H         3.52462234231406    9.47987831128449   10.86089942418206
C         3.10455681482672    8.04213006524452    9.34943197062032
C         1.71393060946173    8.58454927614028    9.17894888620264
H         1.29833426538080    8.33964291181290    8.20386420487755
H         1.74760350456370    9.66900998043547    9.26219640448410
H         1.04203836289106    8.21190187095665    9.95338086077225
C         5.61429031902539    5.70110649995418    7.71913796871332
H         6.66618111060426    5.54776753433086    7.94859841408486
H         5.54397265995308    6.10200873535397    6.68709571802563
H         5.10049518381783    4.73792518268015    7.76506003938404

