71
CSD_code = KIJKEU | q = 0 | S = 0 | Stoichiometry = C36H31IN2Pd | MND = 4
C         1.04841852020791   11.80804159328361    3.13273373538002
C         0.68239577604609   13.06883639815559    3.60037078524310
C         1.50814616657825   13.73262092284935    4.50525325595635
H         1.24616954938938   14.72436445207044    4.84753927929723
C         2.67118074041960   13.12949929473198    4.95061617898641
H         3.30529730560015   13.64544483590730    5.65751829133876
C         3.02650629854540   11.86935698818340    4.50315022616201
H         3.92104857142436   11.39332301214248    4.88070319835695
C         2.21992288085196   11.20185481238669    3.58310214599013
C         2.62626394317301    9.89750457731496    3.01661655242679
C         1.75812983905662    8.79166104818700    2.89791322730517
C         2.23212964021340    7.60633031488638    2.33229243763234
H         1.56126160224749    6.76222098769205    2.25360282472781
C         3.52608265359398    7.50489342449057    1.86124354995821
H         3.86289508147051    6.58793797810149    1.40186638276792
C         4.39111082517634    8.57581041737838    2.01093382693298
H         5.41545346253561    8.49852019906668    1.67852008967060
C         3.94408123808055    9.74702488981320    2.59145275972259
H         4.61972132742180   10.58135241403889    2.70453324608467
C        -0.62849211918209   13.62849384287267    3.20495907011520
C        -1.09199160199312   13.67527828818845    1.87359155148103
C        -2.35972501918444   14.19699546921844    1.60820073915208
H        -2.70246758496133   14.23792887764948    0.58363305325744
C        -3.18008075177785   14.63877965585659    2.62763421667360
H        -4.16763069974787   15.01171171988480    2.40188933889837
C        -2.71491074777331   14.62378624001414    3.93171882860012
H        -3.33414481580418   14.99420271548080    4.73485188712197
C        -1.45241082319946   14.13470899613767    4.20756579155006
H        -1.09307868721867   14.11919792088590    5.22563331668593
C         0.40991676850609    8.74746053107605    3.48491438490625
H         0.21295934702258    7.88581837586895    4.12727258320764
C        -0.26033442046313   13.34741415707894    0.70368293346953
H        -0.21771707355056   14.12307166111023   -0.06453554920349
C        -1.78404465636355    9.64220896264411    3.86078570588703
H        -2.48905146771151   10.00397209891149    3.09337601769080
C        -2.28646155987354    8.28740114858916    4.37574393294624
H        -2.22179810569590    7.53846062366354    3.58839762342601
H        -3.32746126099026    8.38814412581983    4.67099624977066
H        -1.72076368312431    7.95698007133458    5.24483911692081
C        -1.78213557478922   10.64213691828541    5.00359723564553
C        -0.68099992678520   10.79341593057496    5.83583309468391
H         0.22909280971812   10.24081214136822    5.64428460192066
C        -0.73485210791073   11.65600536478817    6.91644817733477
H         0.13337802270968   11.77346665958798    7.54803714823072
C        -1.89631061438358   12.35700333977530    7.18998869778486
H        -1.94106067402747   13.02063263301309    8.04109267122037
C        -2.99940680766999   12.20621496821633    6.36651661815619
H        -3.90902669401234   12.75011202210801    6.57362588538439
C        -2.93902464924217   11.36231680058500    5.27300153704516
H        -3.79777528989911   11.25552283838880    4.62589581462192
C         1.18049652550069   11.89244356921045   -0.54864622027387
H         0.92803719386327   10.85810839294654   -0.83282105188729
C         1.03528288548904   12.78118960788082   -1.78946295147050
H         1.39834283583115   13.78983759326212   -1.60077587194823
H        -0.00412824305821   12.81806765983196   -2.11065342401552
H         1.62865382843196   12.35515739240685   -2.59427198053370
C         2.62594193923149   11.91607039111588   -0.08628657785930
C         3.10053287666596   12.93906315751253    0.72506302954638
H         2.42272223199959   13.69249524606548    1.10408759802443
C         4.44258871269030   13.00361140658465    1.05389396040927
H         4.79784942723925   13.79914098068657    1.69236519661226
C         5.32558557770472   12.05925605066357    0.55904048368530
H         6.37610999995795   12.11966245631393    0.80346333632843
C         4.85711240270580   11.03482902644438   -0.24605372479281
H         5.54004470690932   10.29292769236716   -0.63230819350550
C         3.51235558998526   10.95741470403677   -0.55912612815988
H         3.14865351496010   10.15364513832203   -1.18305667097663
I        -1.67878740608392    9.60527560407546    0.14412383934238
N        -0.48177661728420    9.61251258832375    3.23826097031658
N         0.32095744333650   12.23181163806983    0.55970325587382
Pd       -0.12028037886470   10.87442604419093    1.84362685674690

