78
CSD_code = KIJLOE | q = 1 | S = 0 | Stoichiometry = C33H42NOTi(1+) | MND = 12
Ti        3.98625916653903    3.00267416298242    2.46088342542594
O         4.21373330201238    1.29554731657732    2.66241898323282
N         3.87622174489890    3.59852559328264    4.38092182206746
C         6.03225682501050    4.17408830261446    3.06168235473646
C         5.38068765852101    4.90683736295189    2.02857969249263
C         5.34361959210195    4.08933452046435    0.86613112348536
C         5.92734229799877    2.82493656559826    1.20475405564483
C         6.37076135361761    2.89217617108569    2.54763135125688
C         6.60384487467898    4.74206170441367    4.32500777115135
C         5.13264356854022    6.38734663833117    2.08271716676364
C         5.25847511502874    4.57487007939877   -0.55099223704746
C         6.23141592282263    1.72424653986465    0.23104320002783
C         7.21533785248805    1.88100105290040    3.26517739668413
C         1.80507094094506    2.07918790123347    2.19010684197719
C         1.62037524511643    3.13905122882239    3.10919881699052
C         1.93664618125632    4.36136124972845    2.43444805541568
C         2.30906248574088    4.05631086558594    1.10714176452715
C         2.30695604355037    2.62624651593165    0.97537832735472
C         1.41141465011130    0.64617110189506    2.37089045050475
C         0.91540068800217    3.03379575054699    4.42960561461584
C         1.60778125210746    5.73930363589699    2.93315767938106
C         2.18537703995252    5.03801340792592   -0.02012598344466
C         2.46602868730823    1.83032783510429   -0.28572451127062
C         4.02398334474805    3.18310372383525    5.59495548875162
C         3.73208430044106    5.42754062327094    6.66732068150227
C         3.40503367776547    6.20448278669334    7.76076760401362
C         3.04287119440472    5.60607917339183    8.95789371941328
C         3.01642213267255    4.22403854769443    9.05612968172072
C         3.35390564776904    3.44144204001847    7.96876294014730
C         3.71630782078603    4.03146139832903    6.75369127888590
C         5.61895524784907    1.65659927094657    6.71531333933630
C         6.11223308831931    0.39195109707768    6.97696258572666
C         5.50168693046961   -0.72134143873412    6.42039947938668
C         4.39215996040673   -0.56519227690016    5.60555681503077
C         3.89971224913893    0.69888100084813    5.32736755098179
C         4.51836284414322    1.82263835076005    5.87120288173849
H         3.54794240485387    4.56782936729086    4.35349428610680
H         4.99673543352259    0.76814809966530    2.83997629782735
H         6.52108019582689    4.04559717319792    5.15918796193138
H         6.13283646602140    5.68303005471135    4.59934722165663
H         7.66670271359342    4.94110555014993    4.16936582841234
H         4.46604329887186    6.71548114342127    1.28894114089056
H         6.07909225029366    6.91826833734837    1.95567977021764
H         4.71079563071586    6.69759162798005    3.03946534050288
H         4.81551097608720    5.56273772588937   -0.62089736554071
H         4.71289295756717    3.89272589383259   -1.19940360623520
H         6.27691259382429    4.64434993796770   -0.94145358381661
H         5.62502826337892    1.81784306658265   -0.66717434142397
H         6.05241975577115    0.73873406575159    0.66420872769869
H         7.28150385644519    1.77461283674811   -0.06568714572149
H         6.80024330537398    1.62062452251419    4.24058595993991
H         8.21042554171054    2.29796712249100    3.43291413071444
H         7.33444104610150    0.97427585547961    2.67497223722090
H         0.91949298895542    0.49263053805570    3.32828400271464
H         2.28221691282519   -0.00933194486790    2.30805986573744
H         0.71735685623849    0.35819839972830    1.58025117949675
H         1.05095611220633    3.92736489944623    5.03645413754305
H         1.25258236014440    2.17551057945623    5.00956075920634
H        -0.15590277141711    2.91542587466141    4.25330138526964
H         1.61256381735837    5.79808852393370    4.02165396564418
H         0.60293807522028    6.01167964023716    2.60120313213706
H         2.29272953285443    6.48737073737823    2.53756504064872
H         2.54823284201126    4.63558587870669   -0.95999431232476
H         2.68462636938520    5.98242387670479    0.18380514117770
H         1.12286853179492    5.26064898536465   -0.14963031686777
H         2.99100183243587    2.39170386508216   -1.05592899201367
H         1.48277365656234    1.56453709482090   -0.68113314939152
H         3.00813839959988    0.90400323206558   -0.08741853362089
H         4.03611050449310    5.91815316972483    5.75194201751395
H         3.43467561929703    7.28045988006729    7.68177947018665
H         2.78507873976867    6.21579630116244    9.80944145115688
H         2.73203103664725    3.75388143638646    9.98452544075817
H         3.31806107026842    2.36566376830877    8.04882280939350
H         6.09190823864367    2.52228736254643    7.15706944242084
H         6.96951112073732    0.27480777323574    7.62149084118269
H         5.88333681533072   -1.70782050320959    6.63250211206145
H         3.90158898684757   -1.43225887814141    5.19012261660986
H         3.02208473456259    0.81866732775812    4.70949042435709

