42
CSD_code = KIJLUL | q = 0 | S = 0 | Stoichiometry = C14H20N3O3ReS | MND = 6
Re        5.10250999936153   -4.69081125109177    6.40743771556184
S         2.08454013559691   -5.89085450201285    9.74364425419159
O         3.39010395702465   -5.34849935158401    5.62213060935429
O         5.59704260837102   -6.76709460549197    6.20732798279429
O         6.53715852378208   -4.23312780413986    7.10689292135747
N         4.09234707445639   -2.83918938808258    6.30775152573443
N         5.68164451510997   -4.34655066121329    4.43310234466585
N         4.16976572506882   -5.05271024858564    8.15468717681209
C         2.19954343845525   -5.00929117865615    5.92529357185056
C         1.88575044235234   -3.75589911021245    6.42970429526408
H         0.85413174999523   -3.55273517505231    6.66560220093905
C         2.80425229885337   -2.69220489677870    6.52437659728182
C         4.91342661536099   -1.67155204040896    6.05583993792306
H         5.29055547838515   -1.27458038260247    7.00603857306088
H         4.31732018833726   -0.89817275545335    5.56050885687491
C         6.10573101879653   -2.01571521749624    5.15175576899818
H         6.49538616500910   -1.08472493114193    4.73635736696923
H         6.89640291871883   -2.48572150991977    5.73901238226251
C         5.73448272758322   -2.95766231691984    4.00055263199747
H         4.76489279757801   -2.66148190394331    3.57577243417974
H         6.49582888217074   -2.84179369528527    3.22411260268513
C         5.87662964820152   -5.29701704201115    3.54755841952614
C         5.96269274600242   -6.66321249785420    3.85335209475549
H         6.14818879912626   -7.32130096042687    3.01734133871698
C         5.86947302157049   -7.29038532725455    5.09226765384966
C         1.10284863031411   -6.01273487802233    5.69138528776021
H         1.43432561190422   -6.76731294312323    4.98165860848987
H         0.19453675476329   -5.53490924158682    5.33443131119114
H         0.88382740075007   -6.50478973113774    6.63905277139565
C         2.22752810684599   -1.33043357293905    6.80266289029391
H         2.85972133258913   -0.78412500650205    7.49888856151999
H         1.23569486401760   -1.43198320195922    7.23238978922532
H         2.13953776627744   -0.74762393482989    5.88513129943926
C         6.05120969787139   -4.95254289123280    2.08862135328280
H         5.27274608256500   -4.26829171477702    1.75552182303141
H         6.00955562178007   -5.84943495535014    1.47827564264748
H         7.01852169236931   -4.47750106928480    1.92424990668636
C         6.10468378659207   -8.78588804031764    5.11806758937046
H         7.10104962823071   -9.01263913063191    4.74592087543332
H         5.37756044532448   -9.29017975198768    4.48533512954594
H         6.00853209919313   -9.14699385887393    6.13794886030949
C         3.28021900334364   -5.43582732382433    8.82303704277084

