107
CSD_code = KIJMIZ | q = 0 | S = 0 | Stoichiometry = C36H66Br2P2Pt | MND = 4
Pt       -0.00000097394142    0.00010035292830   -0.00018382802770
Br        1.90274367251536    1.21711314375945   -0.96489011820583
P         1.23467501053477   -0.54682053227311    1.91855796957449
C         2.82747631602162    0.39574264820430    2.16827200363900
C         2.52470669588445    1.85980435088038    2.49067155941335
C         3.78443086371179    2.70017507853569    2.31025034426590
C         4.89268446880070    2.18281438151808    3.22208631101513
C         5.16100629550548    0.70454394690122    2.95570337767722
C         3.88832969974154   -0.12534614997562    3.13610264152742
C         1.83396548797141   -2.29916533639176    1.70042145280014
C         2.21733525311054   -2.43837180771024    0.22283722256240
C         2.76943905800569   -3.82551531468617   -0.08105932344764
C         1.75760146850436   -4.89697666954707    0.31085127104475
C         1.39907477607547   -4.76389449280204    1.78709244819395
C         0.82298448135569   -3.37992143046737    2.08038879771212
C         0.25228485175996   -0.53512611283762    3.49661852122478
C         1.00889217470208   -0.82716091084760    4.78735806500471
C        -0.00262650100943   -1.02794477354837    5.91552783331486
C        -0.86717964802768    0.21933394459574    6.08336995405001
C        -1.57400473083902    0.57201990728187    4.77697823750173
C        -0.55689576679256    0.75384172320882    3.65425905525253
H         3.28267809048816    0.37102186835763    1.16911184278181
H         2.18281797492920    1.94933079679636    3.52388941868305
H         1.73293206437964    2.23400815523996    1.83532951236812
H         4.10412563068043    2.64438364773404    1.26796749699102
H         3.56974529754962    3.74573794626221    2.54031243046145
H         5.80628250885215    2.75849354838733    3.06233645518393
H         4.59478760920919    2.31390284581683    4.26587921124839
H         5.93376053259613    0.33873252215345    3.63588929283379
H         5.52880181523627    0.58400721217282    1.93420497990570
H         3.55486448095015   -0.03807041700935    4.16967327761980
H         4.12605347800210   -1.17288608182031    2.94463465668970
H         2.72836759473058   -2.43719500722026    2.31844923366461
H         1.31690672543813   -2.26981237551045   -0.38903014154585
H         2.95835275637266   -1.68125567031908   -0.04859301095981
H         3.69543240827891   -3.97630549832349    0.48008873044097
H         3.00765143559162   -3.90201246425252   -1.14401339975409
H         2.16773951499218   -5.88923340384333    0.11270860097737
H         0.85351708201139   -4.78119213065698   -0.29118079603858
H         2.29457731581334   -4.92416884820052    2.39391920061141
H         0.66734843652390   -5.52543670966822    2.06349373822985
H         0.57511415197672   -3.31529779787573    3.14137167945754
H        -0.09743309543199   -3.25406755893038    1.50885619043267
H        -0.47351234226067   -1.34422370669558    3.34343736491239
H         1.65071337571444    0.01684339665794    5.04511043238654
H         1.63461585493792   -1.71639119208153    4.68135883385018
H         0.52244041114358   -1.24454777116580    6.84873431268730
H        -0.64126075820610   -1.88345236350071    5.68375283672738
H        -1.60461302194384    0.05440835338924    6.87126659637956
H        -0.23500683742595    1.05701678261710    6.38977915298959
H        -2.26658562849119   -0.22740645617190    4.50565871850652
H        -2.15346020074962    1.48862822111325    4.90481913909646
H         0.09688704507885    1.59393045123549    3.89238041418604
H        -1.07754018851874    0.98875953156974    2.72130183472999
Br       -1.90228930295859   -1.21686444458278    0.96566351707864
P        -1.23487511220865    0.54686887696270   -1.91867099954598
C        -2.82764873578885   -0.39572357792011   -2.16824424279705
C        -1.83401500242695    2.29924750940268   -1.70047080477227
C        -0.25229101535728    0.53510675662709   -3.49659926262589
C        -2.52475894118736   -1.85983193579805   -2.49029942817123
C        -3.88832404231935    0.12519787238202   -3.13633890487371
H        -3.28297859258086   -0.37074118385220   -1.16914774039732
C        -2.21708831825299    2.43862802161753   -0.22282582501792
C        -0.82317020431650    3.38000925525234   -2.08078799571029
H        -2.72856259025520    2.43719009566806   -2.31830008285743
C        -1.00892047141381    0.82708632022672   -4.78733163323929
C         0.55685844997257   -0.75389785117048   -3.65408350966564
H         0.47349506158011    1.34422151936419   -3.34345246945635
C        -3.78449583169163   -2.70016303595141   -2.30984094766920
H        -2.18273493484860   -1.94957141697914   -3.52345468051995
H        -1.73305857768469   -2.23388418251073   -1.83478073507399
C        -5.16100329764541   -0.70466367237325   -2.95587503546341
H        -3.55473531976079    0.03766969182646   -4.16984710779230
H        -4.12604664560926    1.17278901028434   -2.94514065396622
C        -2.76917110310390    3.82578456632110    0.08104764436965
H        -1.31652676668800    2.27014643193038    0.38887108336952
H        -2.95803555875226    1.68152102065500    0.04882712997605
C        -1.39926424940487    4.76399246103860   -1.78753441957639
H        -0.57553677349939    3.31527060164357   -3.14181852629091
H         0.09737949759863    3.25426599714340   -1.50944713642594
C         0.00265770746377    1.02778177846681   -5.91545688996429
H        -1.65072024360882   -0.01694018824740   -5.04505932993255
H        -1.63465332171454    1.71631892286829   -4.68138788561177
C         1.57393624618334   -0.57218388215197   -4.77684893601421
H        -0.09694246675920   -1.59399720913218   -3.89211938339551
H         1.07750481079774   -0.98872936488152   -2.72110258912216
C        -4.89264318789412   -2.18299143712613   -3.22191399529379
H        -4.10430362739967   -2.64416835774195   -1.26760211562754
H        -3.56975917939288   -3.74576520322450   -2.53967312996117
H        -5.93367210937797   -0.33899201240781   -3.63623026276322
H        -5.52891188691716   -0.58390580834999   -1.93444247118389
C        -1.75745586903238    4.89722780838469   -0.31122628786716
H        -3.69529386805506    3.97648162656762   -0.47991120583845
H        -3.00714440567714    3.90240086847387    1.14404740830838
H        -2.29491606113012    4.92416212201069   -2.39416857724816
H        -0.66763772065594    5.52553763762019   -2.06419105402540
C         0.86712874015259   -0.21955677570504   -6.08326664913630
H        -0.52238454974192    1.24439401908338   -6.84867135361922
H         0.64134211198522    1.88325649536232   -5.68369767565682
H         2.26656832419680    0.22722220928863   -4.50560103802101
H         2.15333240005092   -1.48883521398313   -4.90463415599727
H        -5.80625781827461   -2.75863815985448   -3.06214153002879
H        -4.59463055495190   -2.31430207231163   -4.26564691201249
H        -2.16758006324080    5.88949281309936   -0.11309925894276
H        -0.85322627757654    4.78153933040110    0.29060568922356
H         1.60455481471519   -0.05474671954112   -6.87119607401351
H         0.23488196240731   -1.05721370715719   -6.38959360196780

