39
CSD_code = KIJMEW | q = 0 | S = 0 | Stoichiometry = C13H18N3O3ReS | MND = 6
Re        3.98974645835278   10.23483437214106    0.90600276257720
S        -0.23372000811606   11.19930303400318    2.63626792424107
O         2.62439375505124   10.73387475350943   -0.58502511325926
O         4.40928164614589   12.31378955097504    0.76278620233383
O         4.97499294193572    9.82333892249634    2.18288538838968
N         3.40380445444132    8.35855965699676    0.31934589882916
N         5.35212115147012    9.82047613094577   -0.57845649851845
N         2.39119309932031   10.59980186287834    2.06479708827630
C         1.48510425672135   10.19729769262485   -0.72855472693725
C         1.20657329101995    8.86797179911397   -0.39462351412250
H         0.21077834897780    8.50043746679343   -0.57917268338440
C         2.20669196992100    7.95105281288306   -0.05259995934659
C         4.60441314521427    7.58960946793134    0.07964292641699
H         4.40412817827221    6.59591136887815   -0.32544121005291
H         5.15728813603992    7.50552784431668    1.02279400432990
C         5.43584138770243    8.41290041061802   -0.92790193790941
H         6.47444322804594    8.06659175126603   -0.91031903936972
H         5.03068942882691    8.25461353558937   -1.93718779157256
C         6.10739606765839   10.69680471068510   -1.19776639856562
C         6.08827049020497   12.07081566416475   -0.92211911136773
H         6.77130031677849   12.67558270578646   -1.49988950863848
C         5.30076103604779   12.76876247118643   -0.00890358816253
C         0.39527440864489   11.02200579439847   -1.35861601088003
H        -0.26269911900368   11.37162672127324   -0.56355286134535
H        -0.19441751498863   10.43881431054687   -2.06052763525092
H         0.82450120801677   11.88797863847036   -1.85610407047841
C         1.90586787634455    6.48444826299938   -0.20547772563487
H         2.23616223380676    6.11911000826734   -1.17806576952447
H         0.83390696323724    6.32607731693802   -0.13516338190810
H         2.40011041635181    5.90869217484559    0.57336480181915
C         7.06229412961106   10.23834064707818   -2.26770580380535
H         7.83037412026853    9.59803099236157   -1.83431041555942
H         7.54859532520421   11.08505771505462   -2.74160598232272
H         6.53780985696536    9.66386005190290   -3.03038711377990
C         5.52002720492004   14.26415417256138    0.07024258344271
H         4.79680234897711   14.69766202835981    0.75478554898399
H         5.41309389209015   14.71829346193961   -0.91187534113478
H         6.52424951239290   14.46715872235705    0.43605949333666
C         1.27035435712839   10.87013099486467    2.30037856985880

