67
CSD_code = KIJSUS | q = 0 | S = 0 | Stoichiometry = C32H29Cl2NP2Pd | MND = 4
Pd        5.62193062998036    3.58977368055887   10.97884139377912
Cl        6.89023584763813    3.30300229430786    9.13216719586502
Cl        7.08414443787836    2.51148199909958   12.30264255939288
P         3.76373919971584    4.37412093713918    9.90467146592717
P         4.20903196790209    4.37021825519068   12.57193380071605
N         2.93742233147834    4.61100060739821   11.41848346435116
C         1.57184155668403    4.24956286857629   11.55760227854286
C         0.62573174969266    5.23132453759774   11.28000486135742
H         0.96551186489202    6.21450473847892   10.99105782609382
C        -0.72144738327567    4.94645829489744   11.37466492419547
H        -1.45231420927120    5.71094432950382   11.15870085201536
C        -1.12501119129434    3.67930815069752   11.75290916224858
H        -2.17851131606680    3.45531384441972   11.83395557134294
C        -0.19544274613457    2.68628306771852   12.02592279213588
C         1.17339385900550    2.95814999433927   11.92019892736266
C        -0.66261573902701    1.31951087745197   12.42049442235510
H        -0.23289382543944    1.02614802247119   13.37717297261006
H        -0.35598747205165    0.58199069814885   11.67913925160846
H        -1.74585557749582    1.29383163286830   12.50332163309750
C         2.15223079662069    1.85671065162989   12.19137397297606
H         3.18619010010842    2.13852268918056   11.96563728741816
H         1.90811860472797    0.98597450419610   11.58349971006275
H         2.10704345540971    1.55566220947167   13.23862843316861
C         3.24222941206897    5.79947102069698    8.91709509177887
C         3.13341348706064    7.05076986288837    9.51745194020361
H         3.29084747151429    7.14532111558587   10.58397035943381
C         2.82744739119833    8.15947804353557    8.75119645428443
H         2.73264754259366    9.12808045394933    9.22007029437261
C         2.65438297244704    8.03005257718978    7.38193000184268
H         2.41765520544718    8.89777858856626    6.78442242079605
C         2.80076881849090    6.79207200469873    6.77637686856033
H         2.68407610186631    6.69653920307554    5.70707082870617
C         3.10337576328337    5.67810011846445    7.53758285948995
H         3.23429447104272    4.71140812568534    7.07114368219654
C         2.90808574101528    2.94306042217528    9.17865576876054
C         3.57357895776600    1.71861401444597    9.20572282124229
H         4.60512097975371    1.66367500763158    9.57598979313153
C         2.93312567025346    0.57754663503104    8.75552299620851
H         3.44980044028197   -0.37039784979384    8.76772203084164
C         1.62826955809843    0.65295262289043    8.29415253518118
H         1.12664689906147   -0.23895484719951    7.94834171754147
C         0.96403751734977    1.86960001426099    8.27220684747211
H        -0.05349558061806    1.92471785422360    7.91446063246612
C         1.60013120547088    3.01721913633568    8.70880802204033
H         1.08644002874347    3.96822676503113    8.68871783393730
C         4.76666458501329    6.10202006493013   12.77255381471766
C         6.01890123198932    6.43481231437582   12.25617435899606
H         6.66691109891300    5.65374588629690   11.82746397839439
C         6.45752073203640    7.74698403030419   12.29957362043815
H         7.42694259913092    8.00411014055142   11.90002433357910
C         5.65168805852313    8.72857724613269   12.85372079423881
H         5.99262138314874    9.75276142813021   12.88339304450166
C         4.40974848662304    8.39938977081441   13.37434395406661
H         3.78540726481986    9.16608911568245   13.80970727462909
C         3.96662122532843    7.08965790511196   13.33815408794923
H         2.99920293822829    6.83045908259049   13.74388333346317
C         3.46189868111545    3.97147712663591   14.17538742109575
C         4.26597281431451    3.19557942207678   15.00718289755201
H         5.23109415619742    2.86419380993230   14.64338794224611
C         3.82216731601302    2.85133547443554   16.27052166271648
H         4.44447897421663    2.25040792048253   16.91627782720031
C         2.57419897932581    3.27341981161264   16.70112590139944
H         2.22172834626007    3.00053863263635   17.68480618393625
C         1.77356786354511    4.04254356619526   15.87164330165894
H         0.80017265931268    4.36763881989154   16.20901505065052
C         2.21234308570737    4.39965586147280   14.60886077464671
H         1.57668052451568    4.98847279504768   13.96446188289692

