63
CSD_code = KIJSUR | q = 0 | S = 0 | Stoichiometry = C28H27CrO5PS | MND = 6
Cr        3.95685852777104   12.47535790096178    9.41869777909404
P         5.24881180562652   10.59976959081251    9.95514805120547
S         2.33904176981370   11.46416571531794   11.08100068683218
C         4.40200408319527    8.94810790706269    9.95936077236217
C         3.18295668120407    8.78180487691467   10.87909203136874
C         2.05420165663478    9.74988222307146   10.50434333735991
C         3.55618370182570    8.91783804578176   12.35286806504580
C         2.63292474305443    7.35971268593203   10.63780878142398
O         2.22296867960822    7.23792907328143    9.29678075606347
C         1.71570152726047    5.96529118313324    8.98828855768172
C         5.14073853535881   13.14284509590666    8.19778505146221
O         5.83012213169927   13.61586922633399    7.39714943517025
C         4.68834628605801   13.68218784630890   10.62276118560026
O         5.14433549569096   14.59212783629747   11.16776451301921
C         3.22616914011627   11.53969477805978    8.00041318468702
O         2.81606366080897   11.15126349938848    6.99120451978461
C         2.84208191932909   13.83409978793371    8.90106630486872
O         2.21172614946197   14.70179984553392    8.46931088790185
C         6.51770174084700   10.35141880304930    8.67241272373464
C         7.61360053521589   11.21194768980596    8.74720600905314
C         8.58622256997494   11.19878841950995    7.76870510618701
C         8.47100132768219   10.33271892308093    6.69193988648979
C         7.37822182607952    9.48938496564991    6.60074857971199
C         6.40034377126571    9.49899346773967    7.58169301927165
C         6.32141079278967   10.42556104653102   11.43343599918464
C         7.29806041832868    9.43675060600590   11.50652855828106
C         8.09620740521481    9.33210626070341   12.63000349102206
C         7.92851229602791   10.21242678144932   13.68760691248369
C         6.96226491273989   11.20184494721113   13.61872797815062
C         6.16269440868687   11.30830991695418   12.49430401884248
C         0.86369848680788   12.31600726817801   10.55410459834486
C         0.68031629615366   13.57877631485998   11.10929706750717
C        -0.40871261410282   14.34230259454805   10.74090666549562
C        -1.32611331054254   13.84724216543614    9.82678033054952
C        -1.14620892939724   12.58655574581885    9.28811525287819
C        -0.05567023588924   11.81135100817883    9.64931800743826
H         5.14518260644848    8.17987260286822   10.20066863643167
H         4.05395005639104    8.78165476220491    8.93491272110399
H         1.93557822973765    9.75859356346601    9.42126769968920
H         1.12410272517832    9.42669949077610   10.97587387046819
H         3.92128553956284    9.92083476742001   12.55949897783559
H         4.33693895013151    8.20773571920264   12.61680740412768
H         2.68949945745585    8.73174731914844   12.98378668192936
H         1.78235470785124    7.16561776499559   11.31097885480591
H         3.41334219610345    6.61587323381215   10.86426254996261
H         2.47186119348729    5.18691466533349    9.14804456331463
H         1.43438851350349    5.98949908424830    7.93784675074899
H         0.83513487534287    5.73008806947561    9.59855238587389
H         7.68621372955788   11.89864779401420    9.58220391848614
H         9.42988261033033   11.86923366281759    7.83691750650198
H         9.22685309604502   10.32396607652254    5.92088623901638
H         7.27960741151040    8.82264859134053    5.75632248632519
H         5.54881890041358    8.84267578084105    7.47893421620720
H         7.44209855054122    8.76069892043513   10.67384716300159
H         8.85586200397100    8.56553531800053   12.68077358586917
H         8.55655752786135   10.12975210219021   14.56217705956815
H         6.83537866270607   11.89335669844195   14.43846632375685
H         5.40938384111293   12.08457923083283   12.42844258263390
H         1.40990850621870   13.95691355796390   11.81143672498782
H        -0.53998533858320   15.32635982487236   11.16400356112281
H        -2.17495816210176   14.44518805069242    9.53281078633470
H        -1.85485768809451   12.19629688591042    8.57292195837748
H         0.06652910490986   10.83698241942873    9.20417668596950

