63
CSD_code = KIJTAY | q = 0 | S = 0 | Stoichiometry = C28H27O5PSW | MND = 6
W         3.93154489386733   -0.18257283974383    9.47342148116430
P         5.25564342466556   -2.14343632521559   10.04508236736352
S         2.32366197954423   -1.23119418100189   11.22301203474396
C         4.36293513202462   -3.76243316103053   10.05521988477496
C         3.14027563849937   -3.92045890812482   10.97319304585579
C         2.02183077133386   -2.93117502241981   10.62430903948766
C         3.51501565559307   -3.82464527726249   12.44983634506029
C         2.56796922744059   -5.32868394365666   10.70210521245092
O         2.15756244265393   -5.41827223269393    9.35881960187100
C         1.63694544728437   -6.67846956005000    9.02361091059073
C         5.20747189937117    0.49912857229592    8.14685825295319
O         5.95182077167733    0.88494006062106    7.36312548766017
C         4.74005611837630    1.03887026484243   10.81906173316515
O         5.19777376130764    1.85061771000801   11.48318590117588
C         3.10845876953588   -1.26470979474670    8.02627116802267
O         2.65779171021067   -1.79533168345259    7.11628499050223
C         2.72056621804474    1.29754000903194    8.99119692620896
O         2.01823422283042    2.14585513463283    8.67739462129985
C         6.55286741824057   -2.43229343389517    8.80547749463297
C         7.59049460764839   -1.50017013546440    8.82767300985979
C         8.60177994554456   -1.55224500851601    7.89087033790665
C         8.58237387618857   -2.53168913921778    6.90926346442105
C         7.54898585150256   -3.45041180554827    6.87234892640373
C         6.53348334329204   -3.40391302064901    7.81387790420420
C         6.26525124412400   -2.27652065800662   11.56231069209073
C         7.27309152650859   -3.22992820303485   11.66884860893961
C         8.02867971955158   -3.31301183035202   12.82312665980424
C         7.78586528173282   -2.44738042956691   13.87820028037799
C         6.78407296386641   -1.49685606778094   13.77791671938657
C         6.02725857538513   -1.41200482312342   12.62294343662293
C         0.85811668491583   -0.35049669402994   10.72053093688666
C         0.67222195180742    0.88547069854428   11.33243482461853
C        -0.40976320269906    1.66968580412109   10.98699302703415
C        -1.31747127422175    1.22118557363563   10.04010220872621
C        -1.13529905856212   -0.01381637596222    9.44505045482007
C        -0.05223862432479   -0.80936160412296    9.78264754465340
H         5.09149969876203   -4.54643672308306   10.29351493291467
H         4.01488310425899   -3.91493665903000    9.02743272492936
H         1.88712780453667   -2.91185193107520    9.54382420202426
H         1.09368417793309   -3.25003247513233   11.10385260214629
H         4.29877160033172   -4.53896151054651   12.69312128389761
H         2.64948947647141   -4.03249515336807   13.07598664543573
H         3.87667494464439   -2.82722412610837   12.68522413017127
H         1.71364976558968   -5.52280459956488   11.37071744971852
H         3.33635894299515   -6.08900812908796   10.91498039569153
H         1.35819573404848   -6.62974528024236    7.97328044873958
H         0.75255350657375   -6.91636503872250    9.62738046068398
H         2.38422311631531   -7.46826406142067    9.16907140527827
H         7.58584397019091   -0.73025932535018    9.59049888305328
H         9.40089376407487   -0.82656657228182    7.91708067574825
H         9.36854089523338   -2.57264117796098    6.17008937393025
H         7.52758766867521   -4.20845838102179    6.10261703258263
H         5.73237044071331   -4.12613529748834    7.75909271970825
H         7.47275867408355   -3.89584914165671   10.83951398743810
H         8.81376874869277   -4.05130855024288   12.90012472109094
H         8.38201431613959   -2.51185806043048   14.77638512533265
H         6.59577493417272   -0.81858700590294   14.59701085640892
H         5.24274879642836   -0.67029172709118   12.53680301242337
H         1.39395119550952    1.22679167170524   12.06116299182519
H        -0.54359069934716    2.63290339525354   11.45517713306875
H        -2.16115465534001    1.83515487314513    9.76474342577425
H        -1.83671200477668   -0.36749050364417    8.70408767381407
H         0.07226316823423   -1.76329017869500    9.29502017036353

