56
CSD_code = KIJXIK | q = 1 | S = 0 | Stoichiometry = C14H35ClMoNP4(1+) | MND = 7
Mo        5.38856042197948    3.19207930904103    2.00871420193257
Cl        7.13364053372826    3.25977334484286    0.46917082389221
P         5.11571678712656    0.92372472159817    1.25371493327715
P         6.93545169340715    2.09778264160962    3.52188838154319
P         4.02174224509475    4.26910429761307    0.32317222327442
P         6.16425936670501    5.47851397478572    2.28594105444671
N         4.03529959769575    3.89290467900450    3.37046331108249
C         3.84029727877012    2.68135444754071    3.26724550404725
C         2.86305856462232    1.80947206611246    3.95931053088121
C         6.06402906629062    0.36786169413013   -0.20208519472655
C         3.49447356136236    0.19550189730308    0.84709266642766
C         5.76753628198261   -0.21850976224966    2.54344024162020
C         8.69040984707414    2.56316999399835    3.65515739337143
C         6.43006296645798    2.01311649839938    5.27077109510484
C         7.09594503318948    0.32078499175405    3.05255921405380
C         2.21430086900491    4.09192285582458    0.44432410247721
C         4.33973743566344    3.94261132597599   -1.43984058616968
C         4.22154948177473    6.09338380126019    0.44404599249225
C         5.46422860396581    6.48327411632953    3.62604842215888
C         7.92823467865254    5.91818241876085    2.39358596229336
C         5.66991407348672    6.41428983448406    0.78036339385719
H         3.12925069434784    0.75528879370271    3.92492273855642
H         1.88920385931512    1.94033593776680    3.48409727503844
H         2.76693702900669    2.13018263967127    4.99816441176088
H         7.13040642824524    0.52225529881425   -0.03978951170741
H         5.76268324305034    0.95695404470690   -1.06935308113573
H         5.86422314023964   -0.68809401443973   -0.38892553806084
H         2.75708715613968    0.43043822910098    1.60987443326577
H         3.58954088701448   -0.88647953504799    0.74662843463347
H         3.16441370527314    0.61474102148386   -0.10458523466835
H         5.04054376019185   -0.26660247734830    3.35946671560966
H         5.88014212013419   -1.22236447846952    2.12076618937161
H         9.10129848678791    2.71012596100326    2.65516343967531
H         9.24338073153733    1.77521692361003    4.16948137780786
H         8.77311856212898    3.49236874777510    4.21870844184351
H         5.48716144296769    1.47373504559738    5.35705983706389
H         6.28474939568147    3.02903451222712    5.64138858142504
H         7.19957497432643    1.51036259470158    5.85831307187645
H         7.84963538573804    0.27564770196249    2.25775830502175
H         7.46429442274121   -0.25377093091972    3.90900420320348
H         1.91041640590899    4.32550568709840    1.46589178201068
H         1.93211975793106    3.06483093410141    0.21137754239000
H         1.72566604727266    4.77371438614576   -0.25336947009479
H         4.10517305429017    2.89905777933796   -1.65517503233012
H         5.39396307274693    4.11860250508618   -1.65946430735865
H         3.71813628218322    4.59130687276858   -2.05844390654224
H         3.90292515211798    6.57254750806949   -0.48769143796047
H         3.56669385616010    6.42810858497295    1.25675138100328
H         4.37869499500273    6.40855503067399    3.61025650264416
H         5.78227136688104    7.52138849516843    3.52464469593621
H         5.81752714235920    6.07985469677438    4.57513174098859
H         8.50016938799667    5.37290807186055    1.64411585458976
H         8.29841672504977    5.66779974214013    3.38744886056181
H         8.04061231869277    6.99080506787945    2.23002942174835
H         5.81465736297249    7.48576425967400    0.95334943737975
H         6.33396325973597    6.09877521425685   -0.03328082310643

