37
CSD_code = KIJYOS | q = 0 | S = 0 | Stoichiometry = C16H14Cl2N2S2Zn | MND = 4
Zn        3.74980472073953    3.01833970592998    2.83072461630960
Cl        2.97865402075596    4.47589234108353    1.36346711739582
Cl        5.90088206096074    2.94766926683709    3.32262590331982
N         2.93204685842232    1.15751184274465    2.15532081384531
C         3.64925205223044    0.03314431489507    1.82156224506347
C         5.00561291604720   -0.18586677138057    2.04809157512896
H         5.60169192659994    0.58037295935051    2.51803069391645
C         5.55650075477066   -1.38377571729768    1.64458729686648
H         6.60738292174219   -1.56316025610175    1.81010963685158
C         4.78518098004969   -2.36538361580178    1.02488520040490
H         5.24543989716512   -3.29235352786340    0.71962855159850
C         3.43887049411595   -2.16749103031055    0.79133523657995
H         2.83323873484584   -2.91851036905061    0.30975742619278
C         2.88120328260407   -0.96518410916840    1.19334329259882
S         1.23694828073551   -0.41704053517152    1.04073302664758
C         1.68396960199464    1.07466262219937    1.81754513288851
C         0.67691982890316    2.12715078541899    2.04158834957579
H         0.57905186354975    2.33977737700477    3.10552315638087
H        -0.28779491933265    1.82885996205940    1.64086178673792
H         1.01226176953359    3.04828424475884    1.55810700126860
N         2.82043300357260    3.11617096494053    4.75749084586710
C         1.98994302457649    4.11881409722795    5.19937892033435
C         1.40135796807652    5.11358341854493    4.42282467008221
H         1.59651919853135    5.15312168091264    3.36284358847750
C         0.59072665008918    6.04080319932251    5.04285250774324
H         0.13321174621040    6.81922443316645    4.45234923234820
C         0.35348111764260    5.99521824183308    6.41554565973389
H        -0.28405947693843    6.73667328425568    6.87203882222775
C         0.92626688239844    5.01597819166157    7.20240200439329
H         0.75198562651705    4.97300034291774    8.26567782761906
C         1.74173708111651    4.08255801246619    6.58425509596197
S         2.60015031889904    2.74303019892716    7.28884348866193
C         3.21318283685343    2.33377497530683    5.71277701160817
C         4.11292462398276    1.17930910122944    5.54118134730745
H         3.68799165661201    0.46637109492591    4.83589427044691
H         4.29451241171085    0.68687171696109    6.49233109359364
H         5.05861728371505    1.52779755526377    5.11728555402091

