93
CSD_code = KIKBEO | q = 0 | S = 0 | Stoichiometry = C39H50Cl2SiZr | MND = 12
C         0.75762462739819    7.60360758281125    0.83759858614176
C         0.35133274831684    8.32721112018268    2.00478694926328
C        -0.44792529794774    9.44588856989089    1.64879278725924
C        -1.26418184679926   10.28252899056252   -0.70200022989614
C        -1.28462859742687    9.93626465993785   -2.04163706426992
C        -0.80912859046596    8.66850070725976   -2.47114875116271
C        -0.13631342618376    7.82583598946384   -1.60276930635264
C         0.10970768548807    8.26238785679226   -0.27825118298815
C        -0.59253443395639    9.42722674707740    0.20984707515979
C         0.67685087314431    7.98154249945501    3.43317402772420
H         1.40003517673483    8.69245162948000    3.84895663551004
H         1.07617706840595    6.97567555911618    3.50561005671382
H        -0.22458027637735    8.02507442484631    4.04481162471518
C        -1.18856930540103   10.28284776367050    2.66318261540477
H        -1.27337368344367   11.31859848376907    2.33059740225757
H        -0.62822304979651   10.29525168631473    3.60212735717085
C        -1.91778668122208   11.53751089138631   -0.19264960702645
H        -1.15892963164871   12.19982119766585    0.22905823487693
H        -2.64726526066609   11.30034553692717    0.57816566923053
H        -2.43459930702059   12.07225214278242   -0.98057177375263
C        -1.88535922017593   10.88367587460311   -3.04662547459536
H        -1.52889151257803   11.89488646440229   -2.86292382665186
H        -2.97413590739109   10.88180221091717   -2.98426266058530
H        -1.60725654392944   10.62054464207884   -4.06038955721030
C        -1.10443874891458    8.23688831575657   -3.88363071299774
H        -0.81750558089519    7.20655807332857   -4.05917705372969
H        -0.56386720039558    8.85523258812086   -4.59948879474360
H        -2.16923385674370    8.33320853868297   -4.09114408920465
C         0.17483662835142    6.40065641991965   -1.97398177069237
H        -0.72243512515973    5.92159416906985   -2.36401774263205
H         0.48269873074974    5.85052036190879   -1.09198387983196
H         0.95258753795417    6.31870722948444   -2.73161908104806
C         3.47652643388076    8.27686167030555    0.87457575051156
C         4.04517670573081    8.97421705442215    2.00334705270723
C         4.11849909586124    8.62363753042512    3.35926220348185
H         3.72969845118574    7.66758384317036    3.66703135098143
C         4.68783136684681    9.48386514011307    4.27815996806899
C         5.23439078253923   10.69940201280644    3.82904502270852
H         5.68482541402609   11.37366963203975    4.54006681843417
C         5.20953427378730   11.06688660327444    2.50363330040529
H         5.63873586635938   12.00719395498149    2.18711851582272
C         4.60711358260972   10.22071212961658    1.57506440938444
C         4.37460157681717   10.33971982219782    0.16302454050210
C         4.67499567227290   11.33739078790059   -0.76253699176430
H         5.21048588756566   12.22457432226285   -0.45370554961594
C         4.26814598782891   11.18951236389584   -2.06981482084608
H         4.49541830362286   11.97897751934100   -2.76704470836198
C         3.54155819975305   10.06668876344130   -2.50735909601249
C         3.23409465706358    9.06551726352773   -1.60099867335767
H         2.69009851962065    8.18614165880714   -1.91516553592503
C         3.68208171238846    9.15045818753850   -0.26517664528763
C         4.71556912745025    9.17957782066093    5.76815773748029
C         4.07999876228390    7.82881187306022    6.11207892576464
H         3.03004027742394    7.80629342392698    5.82897162677394
H         4.13986849131308    7.66598272318300    7.18641303810300
H         4.60367532467404    7.01147895530482    5.62110590983520
C         3.92532059560122   10.27697193915124    6.49608147514294
H         4.40758523717309   11.24449545434583    6.39321586714939
H         3.84614559303759   10.04588301217176    7.55643836566527
H         2.92364841566396   10.35598228409161    6.07851313300484
C         6.16791878190032    9.15927194279749    6.26363620771851
H         6.73113781270360    8.38682224176317    5.74384807790502
H         6.19653623443620    8.94957088533717    7.33099792699999
H         6.65982253010236   10.11219126393001    6.09186381666159
C         3.04482401429353   10.02654975431810   -3.94478069728225
C         2.56948247573534    8.62996837326654   -4.35677330348244
H         3.35959225825779    7.89489752888917   -4.21508943467653
H         2.29755004035329    8.63407309880954   -5.41057515793944
H         1.69334672182907    8.33482378047737   -3.78873825926558
C         1.86257154994332   11.00132550302238   -4.03640979540802
H         1.09778805792161   10.72652339698715   -3.31188530565227
H         1.43200248399160   10.98706101692594   -5.03591806672609
H         2.18246591622906   12.01518196373910   -3.81107028399600
C         4.15283722087060   10.44592717065055   -4.92088592370957
H         4.42997344943146   11.48822030623035   -4.79741101779953
H         3.81065532959887   10.31541531875345   -5.94549038370504
H         5.03929433343372    9.83264921328838   -4.77297210015487
C         2.64090513350132    5.41973335377772    2.23571962081625
H         3.46240361924434    4.75205632832085    1.99996503840947
H         1.74604057162472    4.81131407990267    2.32353620563202
H         2.84877814340644    5.84339574368480    3.20947356499799
C         3.04384956597895    5.62904612753699   -0.66050271149081
H         2.97570068370938    6.10652599856945   -1.62829614732722
H         2.50440316954918    4.68946390715408   -0.71251571761622
H         4.09115258796319    5.38988592716250   -0.49787347224253
C        -2.58409990838142    9.70186254911165    2.92328308403336
H        -3.16153562808640    9.65373483803640    2.00278755480067
H        -3.12343334829597   10.31414502039925    3.64234160499754
H        -2.50692845618077    8.69119332872311    3.31811218977759
Cl        1.88847186855704   11.21201851410485    2.81071568059229
Cl        1.50873719215485   11.75552244709803   -0.45501566460622
Si        2.44534318532228    6.69478266428238    0.81679466992635
Zr        1.77326010255205    9.87535973930608    0.89708874698536

