49
CSD_code = KIKBEM | q = 0 | S = 0 | Stoichiometry = C20H16Br2N8NiS2 | MND = 4
Br        4.16724944682349    4.90770600853578    0.18701343451367
Ni        2.03676885129647    4.03294217760641   -0.00003980920411
S         2.32542102783437    0.29498673796080    1.17445718631962
N         2.24494036230621    3.11967897990141    1.55017660485402
N         2.21126631302376    3.84339352061381    2.66918270128445
N         2.28031753388555    1.75860462232586    3.25508652765545
N         2.31391694681363    0.52356958199275    3.76028768112257
C         2.22123626576306    4.83222688295399    5.38368555500627
H         2.24852336136144    5.53572356690667    4.56721760967126
C         2.19967262687233    5.25437963725106    6.69757573244891
H         2.20766936732848    6.31019681808818    6.92250368573666
C         2.16884913536670    4.32618881867834    7.72755315211143
H         2.15143195707671    4.65971969898247    8.75444371557686
C         2.18312861006311    2.53427023375235    6.12972341886326
H         2.17678762090410    1.47835098343054    5.90628766404228
C         2.21189325428352    3.46688209275899    5.09358988348823
C         2.16121074730351    2.97054796698040    7.44097632076667
H         2.13772416602974    2.24873194819240    8.24379368979587
C         2.28220553935148    1.85430778932732    1.88891513236485
C         2.33796329768313   -0.35174755849323    2.82928227583890
C         2.37003136755361   -1.80749075191681    3.06848438635204
H         2.39089479148642   -1.99992887830771    4.13748330047515
H         3.25013208819697   -2.24569953701187    2.60049972038842
H         1.48921374471395   -2.27569086770683    2.63135235900813
C         2.23229012228446    3.04786835594571    3.71246006548196
Br       -0.09402962186272    3.15892357695803   -0.18796072519925
S         1.74805827192366    7.77083120700252   -1.17455766860805
N         1.82868901815737    4.94609829195173   -1.55006625402102
N         1.86239060433110    4.22229304673692   -2.66897245464600
N         1.79328120326893    6.30701787365367   -3.25503797284408
N         1.75958188856707    7.54199938500599   -3.76035976852086
C         1.85265768436391    3.23323384678547   -5.38340171026292
H         1.82547611373819    2.52981842045897   -4.56686045635630
C         1.87429256123493    2.81094457662306   -6.69724720123992
H         1.86646580209624    1.75510193167480   -6.92206544925673
C         1.90498281636057    3.73902999692523   -7.72732319506334
H         1.92246594103304    3.40539438374887   -8.75417914495143
C         1.89040336127406    5.53111374519660   -6.12967244412480
H         1.89657806647432    6.58706022657440   -5.90635537677762
C         1.86178404475676    4.59860920219158   -5.09343224686324
C         1.91240693814436    5.09470174168918   -7.44088214476633
H         1.93579183005335    5.81643095062130   -8.24378263182454
C         1.79140559858663    6.21142570816025   -1.88885338230047
C         1.73548940426890    8.41740595863212   -2.82944087167228
C         1.70326157884818    9.87312172866694   -3.06880333315128
H         1.68249318848700   10.06544163816180   -4.13782684229440
H         0.82303693208904   10.31125153101142   -2.60097718568751
H         2.58395238628582   10.34150465001971   -2.63161412314065
C         1.84134584191223    5.01772755279904   -3.71231941039055

