95
CSD_code = KIKDUG | q = 0 | S = 0 | Stoichiometry = C40H48FeN2O2S2 | MND = 6
Fe        4.80932335016229   10.42087338877351    5.67039843803888
S         3.05517909548908    8.99338831084919    6.14946117107310
S         4.94523059293564   10.87016697775321    7.82009760461213
O         4.69370268695930    9.44178992614937    4.02833650297906
O         5.85617637506788   11.72282675860624    4.85777357190717
N         6.32055466813365    9.42179211087495    5.90658803062534
N         3.46381266240701   11.67953651619068    5.35075795025242
C         1.88903261575478   10.24741920823037    6.36501906461100
C         2.23754539573408   11.55230851856264    5.94502565706815
C         6.28344715625021    9.85851995208594    8.19832889455567
C         6.87359217996625    9.09547161614760    4.70302753721829
C         6.87125287375607    9.15850287446028    7.11585925249287
C         5.88856160177703    9.10663590538914    3.66631649419567
C         5.79642701558800   13.66289263750286    3.43367865960568
C         7.87689859892818    8.21581370708442    7.39811177174428
H         8.24451263906866    7.57836183087503    6.60989083487808
C         5.21631165530703   12.67111871054366    4.26907117085999
C         3.80523959436109   12.67812984367679    4.50924999706604
C         5.76946227953083    8.35799209082473   -0.11008095682500
H         6.18560848107897    7.35333958659023   -0.08796848883407
H         6.53556029491225    9.05667824513979   -0.43921958462882
H         4.96574189389421    8.37197611764577   -0.84327855835125
C         7.59313956776395    8.45327983442857    2.12664932327868
H         7.89086861054656    8.19418857805991    1.12700788339921
C         6.26414005985583    8.74604901252582    2.35119446452046
C         4.93608873684132   14.54198975682533    2.82463591364428
H         5.34640236092770   15.29670007865877    2.17594602332606
C         8.58634592194963    8.52125561909539    3.11623438368981
C        -0.23847838134643   11.05046090424136    7.13272040378740
H        -1.20378213772604   10.86302280872480    7.57815269249823
C         6.76929062587816    9.69604419263132    9.49594930072113
H         6.31192940716693   10.25619237302737   10.29623813626546
C         5.20846431328808    8.75421126183131    1.25819320086809
C         8.21408086232064    8.84700952723591    4.40495555850948
H         8.95462668412737    8.98297169195497    5.17627901447982
C         1.18948777257875   15.28684678783365    2.38360999096619
H         0.85900643321888   14.28861288716668    2.10719590131067
H         0.64012612728506   16.00229113133217    1.77510654179220
H         0.93806521410899   15.47058700659947    3.42545296775373
C         7.30369007139918   13.68645107542229    3.24615235282363
C         8.32658102159670    8.05442112621223    8.68602321700378
H         9.08844002105214    7.31840423607879    8.89523216117739
C         0.63671607848027   10.00690186823917    6.92592363097134
H         0.38369492032302    8.99900690085288    7.21477626547975
C         2.97466244184655   13.56989424038099    3.81354347257535
H         1.90837671725603   13.46519194248790    3.90989957362234
C         3.53106722209458   14.49308088732965    2.96159004909245
C         1.35536975558813   12.60538965038935    6.22449604900801
H         1.66453517642735   13.62058508340063    6.03063909987422
C         0.13552144003968   12.35328262420186    6.81075057425933
H        -0.52968764122847   13.17407395212228    7.03308580584131
C         3.07164814735554   16.89980502047462    2.50674564371463
H         2.90443193646685   17.07350723692048    3.56754332212435
H         2.46158624888674   17.60124867276493    1.94173893512429
H         4.11528208630535   17.10665695706412    2.28822154126691
C        10.05885693659042    8.28658658109529    2.80765445223270
C         7.79758636418981    8.81436017599050    9.73259666275935
H         8.17553493449443    8.68103235558314   10.73472397270356
C         4.61794078469487   10.16774927156018    1.15142197036933
H         3.84472961936135   10.19335548608179    0.38635009513577
H         5.39299215299777   10.88448003892994    0.88709795117297
H         4.17895580734947   10.46956951880949    2.09835888702671
C         7.97271048498628   13.78814574416206    4.62384812249538
H         7.70281056693614   12.93556251858366    5.24016669553417
H         7.65765867661342   14.69809437234177    5.13103915975007
H         9.05500416086667   13.80811119324676    4.51403282183176
C         2.69135123244878   15.45819264534883    2.13936749160851
C         4.10245472496808    7.76157347839515    1.64041659060464
H         4.50963039596442    6.75556397325607    1.72244560550927
H         3.32093291548314    7.75992335938733    0.88352063271760
H         3.66222321484639    8.03718285422058    2.59405357883937
C         2.96385008758796   15.20953180589138    0.64882564822257
H         4.00485851680834   15.39210879040160    0.39802199346731
H         2.34693119084271   15.86794976516183    0.04106989876458
H         2.72749074022013   14.17910034709633    0.39259611954775
C         7.73706904117396   12.38360396199706    2.56041107785738
H         8.81877090316105   12.36641082779185    2.44483484771729
H         7.28235093766482   12.30584716681449    1.57472521463968
H         7.43784183955267   11.52113136075327    3.14863604760274
C         7.77285341785893   14.86822895473138    2.39305375803982
H         7.48127177392412   15.81496833251501    2.84214633816854
H         7.37042961370347   14.81061340125718    1.38420569597891
H         8.85828346298844   14.84977702674716    2.32103617565067
C        10.29982029529164    7.81939306181057    1.36949070461012
H        11.36266266991027    7.63728654542117    1.22304847701755
H         9.99086618999576    8.57545327825254    0.65182794520838
H         9.76893845880024    6.89244379512705    1.16564497271444
C        10.61178012899946    7.20905001657219    3.75205043747364
H        10.03358445091543    6.29237388711071    3.65635214080060
H        10.57664155869163    7.53073602465241    4.78889440357098
H        11.64810331895160    6.98999737859172    3.50376198666665
C        10.82039973884247    9.60279752913511    3.01878430244336
H        11.88086538248224    9.45964712915040    2.82200682110477
H        10.70587929349954    9.96537809314916    4.03657839463899
H        10.44189248559804   10.36503819240904    2.34137349789268

