46
CSD_code = KIKHIY | q = 0 | S = 0 | Stoichiometry = C24H16N2NiO3 | MND = 4
Ni        1.77942093451040    1.27650881309619   16.63449123783295
O         0.04271533025637    1.31997815226394   16.00274783110191
O         2.00277624248390   -0.26434325721495   15.66198841243519
O        -4.38377201557596    2.70530101258794   15.18099276482890
N         1.56707561225289    2.83375755504461   17.62559056725135
N         3.52684388454382    1.22128511187787   17.24299873804670
C        -0.88352687134562    2.17316852306010   16.20166892456723
C        -2.14603529184611    1.98165949143951   15.58869898659831
C        -3.17335004573783    2.87439460454229   15.76196416013647
C        -3.00015690028098    4.02270544127624   16.56691999924739
C        -1.80195577762546    4.23801213127755   17.17547412192107
C        -0.71973118007289    3.34117467935185   17.02418362591763
C         0.49632417411781    3.58964996605656   17.67955085432007
C         2.72419129621211    3.15479958058423   18.34242573253443
C         3.80183512343594    2.26096159587773   18.13738289717333
C         4.46444426817958    0.36838882840128   16.88878863667533
C         4.31253595299900   -0.73589218712862   16.03848027995988
C         5.42068945794693   -1.61138791743795   15.73387497708988
C         6.72750900400521   -1.41081721176719   16.20836336113927
C         7.74967993550923   -2.27427391354131   15.89455769320677
C         7.51922590948535   -3.38692237768604   15.08749697646188
C         6.25592535443030   -3.61099921999566   14.60287283152558
C         5.19883725379059   -2.74135249008140   14.90921609984716
C         3.89645600036059   -2.98816741419163   14.38943400904191
C         2.86061832691706   -2.16350376498571   14.65324068359208
C         3.02244816720192   -0.99982342757577   15.47764003586600
C         2.88112387475528    4.23044502922501   19.21575426123647
C         4.07808787718598    4.42001496853978   19.87785916846955
C         5.13045945142144    3.53853252359699   19.68674301895315
C         4.99694396569379    2.46579716787892   18.82738945689546
H        -4.38768765977190    1.89254157214736   14.65951582058122
H        -2.27004814647723    1.10203229397061   14.97260846312204
H        -3.82982500913487    4.70092696400538   16.67777254804535
H        -1.66227088420727    5.11299403832771   17.79421639198394
H         0.52257037152655    4.49572346934837   18.28067809334220
H         5.45500717155659    0.52779250396770   17.29743614748168
H         6.96172978974429   -0.56181482229054   16.83150200072090
H         8.74285637710246   -2.08756064015534   16.27661327599198
H         8.32920773279788   -4.05927327889289   14.84800460288688
H         6.05534634712114   -4.46557355911970   13.97236298015564
H         3.75665508039816   -3.86052199713524   13.76613189539355
H         1.87236658372744   -2.33907230497377   14.25690672983368
H         2.07654843256461    4.92486295239424   19.39810664474554
H         4.18797599249305    5.25465554003589   20.55318911735415
H         6.06004503524237    3.68445316136861   20.21545153727971
H         5.83178347010606    1.79198211262926   18.71791340720806

