79
CSD_code = KIKJOG | q = 0 | S = 0 | Stoichiometry = C30H40N4NiO4 | MND = 4
Ni        1.68329709915205    2.41350823587862   16.31443311857376
O         3.27330110610303    1.77111480508102   16.96876268161162
O         1.61072150810576    3.51857563299610   17.78152529761983
O         5.41244587677176    1.33983817144519   18.34405638962535
O         2.04860147400495    4.74076807029005   20.01830397503153
N         1.72577683708513    1.26408042865740   14.86674627431675
N         0.11061226054618    3.09552120116230   15.62520501111804
N         7.05014298678212    1.42697421827320   21.58995626877200
N         4.48162982356443    5.94899889629411   22.41425058775107
C         4.09403065320081    0.93895728794973   16.45813252623313
C         5.31493319642236    0.65842744775802   17.17498995164573
C         6.23540967712175   -0.22008720645811   16.66732491415416
C         6.00704123590819   -0.87426679908764   15.44331977774627
C         4.86004608927534   -0.65084199186214   14.74306390237047
C         3.88295088630614    0.24940965372736   15.22853696415352
C         2.67630196854929    0.45015924555574   14.52047420025681
C         0.49301540953263    1.26660382382762   14.08994146670230
C        -0.18110782088177    2.62854997893639   14.27610634194880
C        -0.69648817700669    3.95175107159686   16.17380171361580
C        -0.49986002880315    4.58179405382272   17.42365844191570
C        -1.46185822557871    5.48743410246434   17.92852230809997
C        -1.25765038313831    6.12706913315173   19.11371122776081
C        -0.08218831112556    5.90242533573609   19.85236014095418
C         0.87550677116938    5.03248339370293   19.40133353869791
C         0.69448491731311    4.32223095867896   18.15775595744243
C         6.48974366197950    1.08397715539729   19.21125018939878
C         6.18557512037895    1.84609639603194   20.50408741488482
C         8.35346480861245    2.06486842754109   21.53088497437226
C         9.29285331335156    1.44855957068354   22.56259512537483
C         8.70695677134039    1.60743061115108   23.96045655508932
C         7.31150556390304    0.99478215985264   23.97907772495397
C         6.44647220640490    1.62943395647149   22.89457002593669
C         2.40176636224877    5.43092640244176   21.19219925451261
C         3.82809727847812    4.99538816142036   21.53952177943700
C         5.92845843376223    5.84207049909402   22.36543403606094
C         6.56814175253725    6.98903273511089   23.14146493524865
C         6.10307601577124    6.96114579458440   24.59268346184979
C         4.57981052215188    6.99875078557334   24.61870675990816
C         4.01534037688261    5.85159061350670   23.78619525471099
H         7.15104076445277   -0.42356214734996   17.20122881097992
H         6.75346430897709   -1.55932057583589   15.07155356935441
H         4.67764039472756   -1.15853529057314   13.80700377406658
H         2.53820958698459   -0.14806663544587   13.61710905268577
H        -0.16366969222019    0.47697892561005   14.47825418781668
H         0.69004622782332    1.06303957068236   13.03005109885188
H         0.24163060044168    3.34679537814213   13.56132921065026
H        -1.26245575877954    2.56312792790543   14.10277576110492
H        -1.59977566622366    4.23104786471270   15.62690053603087
H        -2.36005918998193    5.66313781137289   17.35444271930935
H        -1.99162630821178    6.81763920989712   19.49971517126627
H         0.05200440951556    6.43050415331363   20.78391299804205
H         6.56827178096424    0.01226253223323   19.43886667711000
H         7.43389299087626    1.41678292175448   18.75837055758745
H         5.14992824536965    1.61639782577802   20.76218700338896
H         6.24578300227074    2.92899117428752   20.31032500691710
H         8.27163976526839    3.15415445052449   21.71111080127176
H         8.76399697697197    1.91975242780935   20.52992474712573
H        10.27117084171596    1.92821690074356   22.49787872153132
H         9.41227214196633    0.38753340700307   22.33854069717037
H         9.34638218610704    1.12206121415191   24.70005667109902
H         8.64496079397682    2.66934719059064   24.21243179668445
H         6.83993714190780    1.13940066477995   24.95296478302190
H         7.38403685134781   -0.07649667456773   23.78624683752133
H         5.45917120897624    1.16111014062780   22.89168787231280
H         6.31360477396594    2.70552675798637   23.11668178008156
H         1.69649057477074    5.19212665520934   22.00028624320600
H         2.39484291520518    6.51705962179653   21.02623006242472
H         3.81186483341413    3.97687755406301   21.96185147136925
H         4.37465417801132    4.95311284731998   20.59505428652487
H         6.27649702272528    4.87883256267509   22.78576704856616
H         6.24046745717014    5.88649856849634   21.31897632387472
H         7.65525127194246    6.90773841570818   23.08321350955210
H         6.26729109669598    7.93202335863713   22.68294432902647
H         6.45452185209350    6.04427732985333   25.07310179389842
H         6.51554335048063    7.80930490929833   25.14219624342300
H         4.20928613890871    6.92390770087458   25.64271137718467
H         4.23409776924250    7.94230978885266   24.19385832508289
H         4.31087387065674    4.88579654126401   24.23986750463901
H         2.92516027128938    5.90377460138929   23.78589016849639

