83
CSD_code = KIKJIA | q = 0 | S = 0 | Stoichiometry = C34H40N4NiO4 | MND = 4
Ni        5.45255218774548    5.92773843934461    8.42149410127016
O         5.69873847604443    7.55431740403761    7.59172836998099
O         4.43099262452718    6.83293213512963    9.65970171204765
O         8.63052697867867    9.17393928761173    3.26391405774258
O         1.87016536760869    5.32920721498966   14.25746541935914
N         6.49693472787614    5.02310172525861    7.17466913135752
N         5.20645503630244    4.28992923099359    9.27010394704987
N        11.41845018191692    9.65050409498253    1.88913743637656
N         1.27114699866379    2.78865805639088   16.80456626694964
C         6.39282302181511    7.85973992681876    6.56659532940965
C         6.42852217174072    9.21429724539558    6.12456091853893
C         7.16865190631778    9.59117908492645    5.04766855190895
C         7.93464060736441    8.65209529101694    4.31542576515863
C         7.92371561361256    7.33851374545596    4.69852604348278
C         7.16077259000772    6.91275677738894    5.81492166270624
C         7.15972660100372    5.55445376110732    6.17323630446783
C         6.54232710749107    3.64960428365512    7.42810517609073
C         5.83100863527519    3.24547343072235    8.58322247032422
C         4.55863759047736    4.07728268387770   10.39259175196243
C         3.87772259158975    5.04714713404921   11.14675837788554
C         3.21668316345533    4.66428738500360   12.34110234872062
C         2.53649092073370    5.58284577562437   13.09337216120387
C         2.49397722366656    6.93115934299193   12.66326762006105
C         3.11891925277589    7.33003124585487   11.52312001679913
C         3.84687474026239    6.41150440324818   10.71194737332767
C         7.19413573554001    2.68833012565517    6.65521420846788
C         7.15007311990330    1.35673608011349    7.01761634253385
C         6.45362135778787    0.96087474836010    8.14923416942074
C         5.79612993990781    1.89368433506348    8.92641534735677
C         9.43997180379525    8.30805473177806    2.49774936929025
C        10.15709541210483    9.11698918251551    1.41492247313003
C        12.28940842459170   10.05828784777031    0.80132431092174
C        13.67132869173084   10.40993443609587    1.34423506797636
C        13.56298662226206   11.53853091260640    2.36308332285862
C        12.57768147005037   11.12692550539671    3.45072918791996
C        11.23958146139935   10.74731951661457    2.82606769385072
C         1.85294267750714    4.00542443429444   14.74264094738208
C         1.07276490682508    4.01541286808299   16.05837868681677
C         0.51021822151043    1.67769179470150   16.25832540214691
C         0.89960290165979    0.37685155467745   16.95355108758425
C         0.63789641070226    0.48624709869018   18.45066818969423
C         1.38179398565262    1.70223112537882   18.98972783065061
C         0.97163243528940    2.95213550421689   18.21737417473345
H         5.84734129870366    9.93039343527233    6.68395419182139
H         7.19489645597696   10.61913447832222    4.71986936487045
H         8.49098377719469    6.59189548660103    4.16408282339520
H         7.76988599940403    4.90726459730890    5.54766415470487
H         4.53065754128029    3.06832755105195   10.79723958191698
H         3.27090601080494    3.62686362329643   12.63401878513238
H         1.94739743581615    7.63159636562471   13.27574558423073
H         3.08855450572686    8.35771920550394   11.19691318008524
H         7.73317982318996    2.96032988004044    5.76176818155189
H         7.65673456455283    0.62184643060131    6.41084295730479
H         6.41798505870141   -0.08234339599751    8.42379496264317
H         5.25277911505290    1.55008846209317    9.79215592598139
H        10.19000907964733    7.81829938767274    3.13189355604544
H         8.81082639286799    7.53989496475147    2.02680884818789
H         9.47158531698740    9.90593434286701    1.06031663397617
H        10.37199074930457    8.44727744103110    0.57863381788639
H        11.87655035029172   10.92789568875825    0.25606679105833
H        12.37401540317743    9.22668699316088    0.09609624204388
H        14.32464536440339   10.69742526376492    0.51827930463923
H        14.09240485865101    9.52636197232725    1.82643258123727
H        14.54157190709554   11.75517353423033    2.79565967197104
H        13.20437279501433   12.44463323984428    1.86824948481678
H        12.42897536088217   11.94014368740311    4.16308431626083
H        12.97242941529490   10.26429669457786    3.98967241211863
H        10.80445487373977   11.62969703021668    2.32029910157823
H        10.54374483153092   10.43045401190252    3.60261378388862
H         2.87255695601496    3.64833497935496   14.93974597865320
H         1.38187321220487    3.34353622943583   14.00394388691421
H         1.46064261032178    4.84798477188415   16.64985307433289
H         0.00798395912480    4.21746182228551   15.85091157960501
H        -0.57734837305405    1.84621121306484   16.37433303203180
H         0.72691258727032    1.59771700799990   15.19166163778112
H         1.96167620171975    0.19328068592558   16.78389878109190
H         0.33235428416548   -0.45001691559577   16.52224344372522
H         0.96646103588096   -0.41991757871092   18.96256491102725
H        -0.43412723745925    0.60458840182449   18.62723800785462
H         1.16943153642091    1.84483936756902   20.05066639017915
H         2.45566872063545    1.55274001818802   18.86904253042113
H         1.53351338555744    3.81242110322221   18.58912972669091
H        -0.10429905921613    3.14856761347894   18.38095065348989

