59
CSD_code = KIKMEY | q = 0 | S = 0 | Stoichiometry = C14H28B10CoNO2S3 | MND = 8
B         2.44186557242810    5.69179358097264    5.71201043974487
B         3.41581747664214    6.29980307292154    7.05137748536867
B         2.76421632961268    7.86308129818968    7.57487167646291
B         1.36795323707800    8.26489440210522    6.57329503008427
B         0.14404796310207    7.02142067758702    6.78063086161211
B         0.79702100118263    5.45194419376647    6.26699848203118
B         2.18676294795289    5.04271594916267    7.31916702596402
B         2.37951042518740    6.38483469906111    8.48663727897420
B         1.11088754932528    7.60666108985978    8.17387280032695
B         0.74354309434824    5.86162072138074    7.99102086492965
C         1.23916006143770    6.91281586856935    5.48170781027549
C         2.68559616402961    7.37885569569919    5.94098972452009
C         3.93236977877903    6.59494850922771    1.79068191010984
H         4.59923807258997    5.86574838639794    2.22162683384009
C         4.27018980668431    7.95261860237765    1.50056306108706
H         5.24210273615352    8.39695720151352    1.64903104025684
C         3.19145370182720    8.53398752147114    0.81321767723255
H         3.18323405767425    9.50699694994910    0.35121440742266
C         2.15156406564479    7.57019445315862    0.75255765630734
H         1.23575207531604    7.66515795127078    0.19175729036440
C         2.64277065678239    6.35673474220255    1.31901339726449
H         2.12364452818223    5.41290004290185    1.32057235696425
C         4.66751260778624   11.94999812887639    4.24651382028515
H         4.97651537969494   12.84481218284879    4.77048226564483
H         3.91747085510021   12.18057088565196    3.50131949409915
H         5.51779511536607   11.44465600444033    3.80960933166076
C         2.21802171537184    9.70368934202846    3.51943361997277
C         1.43636295260131   10.77209435097527    3.47851179432514
H         1.65124086031872   11.54719883957687    4.21194473104262
C         0.19494410634687   11.06273231760411    2.67764520048164
C        -0.99629271934987   10.90302086908074    3.63350068381509
H        -1.06576586425351    9.87033877148423    3.96560954860544
H        -1.92306400268464   11.17219782363443    3.13154941244714
H        -0.87622359478617   11.53931061941886    4.50717349389151
C         0.26552543447728   12.51319007238027    2.18404982405167
H         0.36642341713187   13.20101596061124    3.02076948689280
H        -0.63925502916947   12.76958336736092    1.63737676417937
H         1.11696157466218   12.64938203305089    1.51949848895804
C         0.00734871753666   10.13001146652214    1.48672072526186
H         0.82298817701779   10.24410704122944    0.77890358016420
H        -0.92634248999376   10.36175581106192    0.97880975728411
H        -0.02977363395134    9.09873361895938    1.82525403256277
Co        2.57045033175608    7.96215239315123    2.76461071011710
H         2.89492651092703    5.23685976570635    4.72811455231995
H         4.58116057949557    6.16817651247099    6.97801043195418
H         3.51106883614481    8.72286358804864    7.85047661346455
H         1.15672281937911    9.31994932130643    6.11275292603767
H        -0.97026173839525    7.28196278977245    6.52608180900395
H         2.46740965752128    3.93079426244914    7.57011740989991
H         2.80476118260220    6.20161395268328    9.56570580762029
H         0.63667442122837    8.26207028966307    9.02406857958720
H         0.10462036454385    4.71350347911733    5.67597884518788
H         0.00777549592505    5.31299266608640    8.72361434958125
N         3.26091541273558    9.64949069228993    4.47776319423775
O         2.93003231255535   11.53669437300918    6.19472865643661
O         4.96405716457424   10.14211603162707    6.15969102064321
S         0.70158810651724    7.24996399747846    3.79442531706547
S         3.75959876385002    8.06137046548748    4.67009246021214
S         3.92610489746911   10.82984030308168    5.45337614986951

