67
CSD_code = KIKNAV | q = 0 | S = 0 | Stoichiometry = C22H28B10CoNO2S3 | MND = 8
B         3.17324922202482    2.38929965840634    9.05026456942728
H         2.20680624348008    2.59834750647524    9.68447639964713
B         4.20591118573086    3.65383854669802    8.38340761270896
H         3.94676499555515    4.76612686455050    8.65522254356544
B         4.57270190423804    3.25819436549064    6.69315060189450
H         4.56575172943750    4.12118733933670    5.89807974765610
B         3.80185417868961    1.72590111866767    6.27806590548365
H         3.22052168782179    1.50368370240679    5.28677222793486
B         4.42212167490850    0.46525197686208    7.33195460738748
H         4.33706861937121   -0.64935807643126    6.97955673192762
B         4.03879339804369    0.86790619016535    9.01660146884637
H         3.70809904438280    0.01031608140565    9.74402752301724
B         4.88300590363374    2.39280235237388    9.43732411555488
H         5.25316469489427    2.61587589450502   10.52883102966830
B         5.76733672089334    2.93161042642177    7.97647684570266
H         6.76860277032071    3.53989425902244    8.05505690053544
B         5.50202639620895    1.73849309315271    6.67251313448354
H         6.31031246754115    1.50153047281206    5.85436955800020
B         5.66477130538365    1.18914145934562    8.37283817346246
H         6.59595070111934    0.56737989572023    8.72685785729887
C         3.08665385410623    2.81762712340191    7.39266261148702
C         2.97617806997339    1.27575368144026    7.73587379743165
C         0.08348666694907    1.92596765670422    5.41644660505869
H        -0.41499435622073    1.09395048060437    4.93104996410080
C         0.85954079592782    2.71551329566133    4.67385023902835
C         1.05598647521266    2.59040416847859    3.22266279242114
C        -0.01576919404795    2.25687997843818    2.39714449348644
H        -0.99539218007528    2.10851544767110    2.82927220773891
C         0.16718199584800    2.12566210596470    1.03334346087328
H        -0.67200294991970    1.87269262103790    0.40162626149911
C         1.42001169107649    2.32489952513065    0.47833849490085
H         1.56072478892672    2.22773398320737   -0.58790383727321
C         2.49042976740403    2.65002128357354    1.29497132629377
H         3.46937584279375    2.80386880842572    0.86699699287292
C         2.31453520600443    2.78248366261202    2.65898165281453
H         3.15044676036610    3.03479959814449    3.29209761979031
C        -0.48815352834051    6.55736079550627    6.17424795706873
H         0.30235434916159    6.94614721445236    6.79690885329673
C        -0.15569989586410    5.75839752120927    5.09739006127712
C        -1.12607329247435    5.24162144377073    4.26100856726922
H        -0.82843398527719    4.64593612790806    3.41291458499490
C        -2.45683969593736    5.51967757776037    4.52058848079758
H        -3.22288730201122    5.11649984548739    3.87504153718179
C        -2.81972519309758    6.32124616873871    5.59863224557153
C        -4.25952835542770    6.60248154628356    5.89410603462621
H        -4.87507205710633    6.45575505058247    5.01072902748604
H        -4.38920755415615    7.62096082548382    6.25242869172296
H        -4.61557240061477    5.92670150218116    6.67249740217082
C        -1.82042822917173    6.84449493705807    6.41595863171385
H        -2.09118067210774    7.47713287846879    7.24887907208301
C        -0.91978054123984    3.03179844758307    9.10453143431150
H        -0.46646143747778    3.59768944922864    9.90209383437067
C        -1.54773234921147    3.58692530116967    7.95262489674031
H        -1.65490097828487    4.63943067690080    7.74546912343988
C        -2.15794622379638    2.54115624578555    7.23494236768256
H        -2.80325068500643    2.65312210125133    6.37909443268693
C        -1.84441959964178    1.32666582340758    7.89523383835914
H        -2.24587820388144    0.35406862623733    7.65704188811174
C        -1.11541111649877    1.64926138378215    9.07890392652188
H        -0.82640605021676    0.94771058187537    9.84406092494175
Co       -0.06717812056757    2.20457976733710    7.29480735470432
N         1.62793318690626    3.71977775758946    5.31887006985497
O         2.37979572989488    6.04349555463712    5.74011892328460
O         1.84440859871347    5.42073660481060    3.41631410572927
S         1.54837649809602    3.66581229782959    7.01040687063395
S         1.37350292749079    0.47779278618594    7.53285494366002
S         1.55308809912923    5.33666661160693    4.81003768095858

