73
CSD_code = KIKNEZ | q = 0 | S = 0 | Stoichiometry = C24H30B10CoNO4S3 | MND = 8
Co        3.12005708193304    3.18927701689755    4.19245306463236
S         5.26741933163493    3.33302806377056    5.22994212321545
S         0.72331899107711    4.34893662559656    5.63997796041565
S         2.94462913245780    5.90258023079421    5.29726005284804
O         0.27172033193678    2.99596072064958    5.48819793953191
C         3.17224755954425    1.91904183770918    5.60824554239152
O         0.14307611996601    5.34347519695775    4.77591515303826
N         2.36646308918714    4.35524096711837    5.48162109680751
O         1.65939688815619    1.09530603329441    7.22498247656005
C         5.14886908165152    1.20315539764803    7.08505846021728
C         4.39675671211910    2.00450491474637    6.12724644649471
C         0.54588080737995    4.87741112302091    7.33169134683804
C         0.69189506112145    4.40498666431470    9.66252117335401
H         0.84418278045313    3.70072546330292   10.46643541665228
C         0.30277871340431    6.21092697593420    7.59824075144122
H         0.14879061438864    6.88801042787956    6.77251771380262
C         1.65030345698059    2.60421182341037    2.82370696815126
H         0.66534936388180    2.22035333003970    3.02628022947958
C         1.96090419969568    3.95897642822563    2.53170533020595
H         1.25392848856960    4.77291985244837    2.53053092421032
O         1.48736362645791    0.38973337997079    5.10022781080880
C         6.49994763411261    0.94080519505941    6.85812745323036
H         6.97966292590936    1.34439317040437    5.97798409515495
C         0.73819244760157    3.96549684221762    8.35131115826528
H         0.91755194312216    2.93019272913566    8.10660206415587
C         0.45586470485317    5.74424588426544    9.95762036676523
C         2.82301819607216    1.82755270228920    2.62038956715154
H         2.87791875341667    0.75207808152286    2.64154625041147
C         5.40472323906442    4.67741003312499    6.44914250999340
C         4.32750590789367    5.87944304116244    6.47762059300370
C         3.32729588346791    4.03677261918929    2.24187083453127
H         3.85925092869191    4.91445487480512    1.90978349154096
C         4.53573233641709    0.68686429715543    8.22571317062635
H         3.49529052374004    0.89778294287148    8.41072339354653
C         6.60532453327992   -0.34507523773682    8.87860660822019
H         7.17043931131306   -0.94463298997864    9.57630759264215
C         5.26557211674662   -0.08244230749176    9.11262686339749
H         4.78478140172672   -0.47554570695134    9.99576343863358
C         3.86488129967614    2.71224134056329    2.29337068738461
H         4.86678116874602    2.43442895593049    2.00268104875607
C         7.22007339820539    0.16810709572768    7.74797688760043
H         8.26441269784536   -0.03177798417553    7.56047584993530
C         2.04080117160264    1.10568547260254    6.07456372452976
C         0.44916541276850    6.22061426093105   11.37693492236123
H        -0.21573369297712    7.07196613777541   11.49873365152115
H         1.45425306096853    6.53288887416488   11.66080736368438
H         0.13864439404690    5.42718037419429   12.05168093221701
C         0.25230599730647    6.63994763224037    8.91282104123240
H         0.06123838171206    7.68045532536911    9.13022166448869
B         6.92574069855981    5.90248320821751    8.41396381963059
H         7.86820169731486    5.88277183520506    9.11298283002801
B         6.05693227003914    4.40751801063938    8.00443240720671
H         6.35807635694433    3.31492965556919    8.30064058637614
B         4.34440389569170    4.79539788470304    7.79200969875945
H         3.47961230478423    4.00967573966559    7.86652979618206
B         5.27712167963295    5.60604908914463    9.05234353949085
H         5.06939413065647    5.39200670430658   10.18767283939803
C         0.26243278655013   -0.24825060512901    5.42812520659744
H        -0.49121022418351    0.51687183172769    5.62511855386353
H         0.38206610415129   -0.87547159318061    6.31444793513820
H        -0.01022327018278   -0.84990024589301    4.56457954583825
B         5.87805702096045    6.17835966628415    5.76948126859908
H         5.91378572774799    6.22746594566777    4.59946972982580
B         6.99539139255656    5.25467936480800    6.76664171011596
H         7.87851837872165    4.69067932174107    6.24010924862702
B         5.07564359095360    7.37538869195997    6.78842064331078
H         4.61108233850651    8.32173456771014    6.27609260212949
B         4.15249074816596    6.53059861631822    8.04619211873786
H         3.09259505328338    6.93454243727871    8.34490262844895
B         5.73610143915229    7.22558988482155    8.43098776069959
H         5.83817605973292    8.15502302703977    9.14039256099992
B         6.80581076917618    7.00556591120452    7.00711733579969
H         7.65007154180955    7.77009492009125    6.72748042814025

