51
CSD_code = KIKSAB | q = 0 | S = 0 | Stoichiometry = C22H20ClN5O2Ru | MND = 6
Ru        9.51433667748747    1.56240326500266    0.57368637692654
Cl        9.78802943669822   -0.17792439360296   -0.92999653113664
O         9.36340263022522    3.09979684121736    1.98638287111694
O        11.19812294754373    0.94249277633423    1.64609382212314
N         6.87566183422280    0.96309474071492    1.22075393317868
C        10.15224046724913    3.35034626277182    2.94710099291617
N         8.07609876709995    0.57490915751546    1.51429416322425
N         8.03255931097950    2.29077554292152   -0.21430958504725
C         8.22380970832864    3.32146427529198   -1.06053074758672
C        11.73990676708648    1.47425146967925    2.64387183490438
C         8.17213111796910   -0.41087155770772    2.47829706217412
N        10.35729270009360    2.84616116298620   -0.66957690716823
C         6.82922241302775    1.93349714202289    0.27400919754149
N         9.52698643050873    3.60709770672612   -1.30860919757651
C         9.31185179536443   -1.22077119381700    2.49931445136892
H        10.06344376819353   -1.09663046388769    1.73095548619770
C         5.68719754621656    2.58463618600366   -0.19899754679294
H         4.71684535908357    2.30295347077606    0.17256398237764
C         8.45358078771190   -2.36465410790523    4.42836582758183
H         8.56507154351337   -3.12180258063918    5.19021471221494
C         5.85164439386073    3.60065669037642   -1.13147599190768
H         4.97987630652742    4.11076533830284   -1.51201168299404
C         9.44336011811667   -2.19099066180573    3.47226651661949
H        10.32019176109208   -2.82091068824499    3.48347421675979
C         7.16623769344719   -0.60095319162511    3.43311358671158
H         6.29427913468534    0.03379961107955    3.39869710055276
C        12.99118070915374    0.81363984752446    3.17734117353273
H        13.21230631501617   -0.07395989159382    2.59092035289705
H        12.85183376978871    0.53608313743059    4.21948873778484
H        13.82810499742001    1.50571745620172    3.11537118663056
C         7.31660199155551   -1.56953403680543    4.40309828722358
H         6.54466135924664   -1.70827042107898    5.14561722857699
C        12.62149382073801    2.07626796878708   -0.68241171507322
H        12.26094782918257    1.07927606984629   -0.46621092276579
C         7.11034909935173    4.00058045361566   -1.56119615021708
H         7.24573289815127    4.81857889386732   -2.24789337650264
C        11.28411768497330    2.62802018716118    3.30375922289794
H        11.85150018002524    2.97605489107927    4.15220088518796
C        12.14865296821363    4.39324363587835   -1.20222639876299
H        11.41990986943832    5.17760317773369   -1.33774334630924
C        11.69954376007291    3.11248259819247   -0.86090066552269
C         9.80014609161351    4.56684398922262    3.77691053984066
H         8.90140725998424    5.03227656805534    3.38015671770057
H        10.61946807880978    5.28166722916763    3.75219183275602
H         9.63001374459613    4.27458942978976    4.81060146129779
C        13.97072958011934    2.33089825096561   -0.82366018113379
H        14.68219734100212    1.52945080162511   -0.69217758436705
C        13.50063718694495    4.63241658225217   -1.33233395043944
H        13.84735113969161    5.62376946611256   -1.58430795344563
C        14.41472408627255    3.60625529087079   -1.14053103017042
H        15.47200682227975    3.80015562358096   -1.24381229590198

