99
CSD_code = KIKVOR | q = 0 | S = 0 | Stoichiometry = C40H56N2W | MND = 4
W         6.49684756359887    3.74401231406972    1.44248534329330
C         8.31062500957344    2.51211458745717    1.37435099904369
H         9.15696621312063    3.20607144078132    1.18451904535130
H         8.37820221112400    1.72931885945891    0.60286833698610
C         8.50990955078055    1.86266424566028    2.75451433470503
C         9.96688670623375    1.42960450847341    2.99647328297389
H        10.66420022641520    2.25606954212263    2.88522040020459
H        10.24555087734562    0.66054909756283    2.27833891331903
H        10.08017092055923    1.02154198857205    3.99992326346225
C         7.63594600371425    0.60582502180879    2.83428841602412
H         7.64345208829912    0.17916729990291    3.83596624020211
H         8.01846342024224   -0.14521483655214    2.14490203209698
H         6.61457195689889    0.84786957156856    2.53826382475868
C         8.10113403227597    2.92371325464323    3.77517637096653
C         6.96807264192219    2.80361438955304    4.58580623286678
H         6.31519922626515    1.95060782987807    4.49412242827209
C         6.69295364887904    3.73994322409116    5.57117013421713
H         5.81760393968105    3.61522028400796    6.19235528881530
C         7.53312819850730    4.82099259074437    5.77224541950093
H         7.32164146255216    5.54358531020458    6.54631960158698
C         8.64790917015930    4.96900210461585    4.96465086684833
H         9.30940782235080    5.81170464745588    5.10703477863652
C         8.92190902894986    4.04037732844617    3.97534155385973
H         9.81247059546942    4.17485156248218    3.37526044257604
C         6.49420862661565    5.66264597073375    2.52416473631632
H         6.19393356861730    5.49935168532106    3.57640420448360
H         7.56099629717833    5.97529757850419    2.54812635772938
C         5.66909830724481    6.86429033506656    2.02073795206409
C         6.27771481167515    7.41754683489150    0.72523812033312
H         5.62198302616907    8.16519155475905    0.28190275858645
H         6.41343772511947    6.59275160407600    0.02448747027183
H         7.24507373857897    7.88092384400463    0.90503847522560
C         4.25434477296163    6.36036911905591    1.71135490731709
H         3.63115997756353    7.14933388917731    1.29271515237703
H         3.78167492276366    5.96818724548544    2.61010855151711
H         4.33595887975367    5.54409809626131    0.98574112279739
C         5.68340895905438    7.95325936626716    3.08512306613695
C         4.52786248119722    8.45847601801054    3.66953889954637
H         3.55833058380780    8.09985876170463    3.36384939134926
C         4.58752430880156    9.43211421342874    4.65310950361744
H         3.67113756789265    9.80545622823541    5.08821970110430
C         5.80566161908871    9.92675647781743    5.07887316723057
H         5.85180836945824   10.68528695198664    5.84655607455616
C         6.96694529625263    9.43690932480918    4.50621032902585
H         7.92853470871433    9.81360775541682    4.82572278783508
C         6.90245089685676    8.46609492040690    3.52578945644860
H         7.82616815404270    8.10225413904598    3.09907644837347
N         6.55533089371197    4.20657481637033   -0.28125600489793
C         6.23947638389911    4.12090720415718   -1.65171798904305
C         4.73657712963553    4.39039940084015   -1.87301863039336
H         4.50660566714226    5.40722396220509   -1.54603249484212
H         4.16974806017477    3.69690073795788   -1.24544251355641
C         4.37717603158989    4.21712146147945   -3.34581071675752
H         3.30636188097247    4.40997974991461   -3.48195610863425
C         5.18308731777713    5.21005467429580   -4.18301849752870
H         4.94539455452807    6.23151573895410   -3.87754570895178
H         4.92168047731256    5.10587416477871   -5.23874313728370
C         6.67530689316940    4.94216931470259   -3.98910919695169
H         7.25382910360809    5.65579848730555   -4.58773729775910
C         7.04262173303649    5.11395415393674   -2.51591719067503
H         6.82478088849262    6.13509752678345   -2.19486119188551
H         8.10974091844192    4.93506834975121   -2.36429522188137
C         6.56659194114563    2.69124943324254   -2.13789123920492
H         7.63587981602000    2.51483138590722   -1.99748534997178
H         6.02552537901591    1.98172976321389   -1.50469097543621
C         6.19148114710761    2.52696493891618   -3.60729477858764
H         6.42341762082588    1.50463920104402   -3.92844919019072
C         4.69788128211211    2.79111720771081   -3.79084160494071
H         4.42260679361453    2.65810695482585   -4.83980909074458
H         4.11996001829663    2.07803772407585   -3.19845757675076
C         6.99601562724740    3.51964912122737   -4.44576019771998
H         6.74639279571367    3.40439978267151   -5.50323829797213
H         8.06425462497094    3.32306049195563   -4.32988711529567
N         5.10165328584004    2.75411585807142    1.99068557603702
C         3.89824152189265    2.01983505498730    1.88691701157341
C         3.99187347824872    1.02185161379229    0.71228906758208
H         4.82719785866935    0.33864581741818    0.88855457398067
H         4.21031878243271    1.58838020903465   -0.19715566559783
C         2.68778342149913    0.24208925221543    0.56882687818241
H         2.77591567375801   -0.46006978010751   -0.26879014158121
C         2.41496350151283   -0.53488270690018    1.85655044310608
H         3.22847776816945   -1.23949411452139    2.04454564722629
H         1.49068380655117   -1.10880206286756    1.75666309377805
C         2.29362341437267    0.44470606998381    3.02351678847980
H         2.10014941545232   -0.11280018976822    3.94795394336320
C         3.59674668070344    1.22661602715709    3.17602258441016
H         4.41924880262566    0.53567851595776    3.37750927253786
H         3.52753652528369    1.92537300488918    4.01346978637034
C         2.71220520227000    2.97281795554004    1.62479580466491
H         2.92286162411615    3.54843802269071    0.72003679426063
H         2.63573017151571    3.67396445414837    2.45875857699005
C         1.41403554940102    2.18478406382553    1.47321586816679
H         0.58948055283412    2.88184366897343    1.28305944355269
C         1.53675231932936    1.21094735358913    0.30227392129241
H         0.60369688583930    0.65569456538774    0.18029862318132
H         1.72230217655900    1.76356316338715   -0.62158947529057
C         1.13750626609319    1.40778919159192    2.75947364538594
H         0.20301038587915    0.84948632822816    2.66583041230712
H         1.03163983527137    2.10123483361781    3.59686865907865

