69
CSD_code = KIKYOT | q = 0 | S = 0 | Stoichiometry = C18H32F6NiO10S2 | MND = 6
Ni       -0.05017054322781    8.18882879093702   11.98661923694975
S        -2.39927572239370    7.20642178764952   10.56603307838510
S         1.06339500464267   10.77231524803963   12.77917990977368
O        -1.10229666444713    6.94332046808196   11.21194638782257
O        -2.33358448501831    7.86393734167369    9.29631315205327
O        -3.46921337750441    7.56288328316173   11.44453798999509
O         0.04387558021218   11.36258891303415   13.58995680547651
O         1.35976068627551   11.39516056609852   11.52578618713058
O         1.11852404310691    9.30071495730741   12.78704881028008
O         1.28266915861266    8.13188950204558   10.13019840558901
O         1.12772009479951    6.53343129279387   12.77783506890304
O        -1.18750688483721    7.99488842651786   13.94367762148625
O        -1.28497463516566    9.80322088415958   11.35551217910053
F        -3.87606030112930    5.21031981754992    9.45962562214229
F        -2.78628714560737    4.67239923481271   11.24049927653729
F        -1.73882778084875    4.93588815383050    9.37637958655120
F         3.65621523537634   10.40017154542059   13.15441856627337
F         2.49610030815720   10.38594906607632   14.96988630764871
F         2.98251497667890   12.25800775548917   14.01644369414042
C        -2.74040479531673    5.41022449519111   10.12608519189366
C         2.63613576012857   10.99295126025006   13.78632157926598
C         2.53258399084052    8.83137788378897   10.00339129266617
H         3.28477445199035    8.31964008823332   10.61311881314678
H         2.39909860529391    9.84359796398127   10.39407267921251
C         2.89428021208260    8.84056229682182    8.51558710799200
H         3.55587367133007    8.00783275155701    8.27249129759598
H         3.37916374077829    9.76912380137314    8.22606517054106
C         1.53446840439589    8.64402353843839    7.84998344353157
H         0.99314332853728    9.58826841274418    7.80485040874391
H         1.60387417565306    8.22101050530298    6.85089145625925
C         0.85905135064850    7.69721164048334    8.83417612998655
H        -0.22965608534071    7.71953629695835    8.79855207046558
H         1.20254689195941    6.66439527309890    8.67566102533349
C         1.49601219990565    5.44299764041556   11.94171321778998
H         2.24012564588606    5.76999474766454   11.20457490251937
H         0.59672359239879    5.10411163436490   11.43027082992360
C         2.10331889758674    4.41568956872801   12.90424064726289
H         2.84868662232513    3.79555901268865   12.41170716297745
H         1.32398422878774    3.76867415478705   13.30302735580675
C         2.70618455736526    5.29122053715358   14.01683512303688
H         2.34351563514157    4.98225047714809   14.99525683726940
H         3.79344834230077    5.24564308742778   14.02766060493500
C         2.22148521396915    6.71142066092963   13.67067276452227
H         1.85922920537951    7.27873792998063   14.52669200694443
H         3.01476028832599    7.28979534927742   13.18157913834657
C        -2.03487585399629    6.88522167226070   14.26043264674574
H        -1.42184531213023    5.98480407176000   14.38394959666500
H        -2.70677696192526    6.74441109216017   13.41248920207744
C        -2.78229026618532    7.24281017406527   15.55885477133041
H        -2.47594802990117    6.58371297548338   16.37112434872380
H        -3.85901940927756    7.15904042624581   15.43559850984085
C        -2.34469914839073    8.68301418854293   15.83989645748778
H        -2.27550923311254    8.90562238869431   16.90182539335409
H        -3.02760808854718    9.38917573833718   15.36980893201369
C        -0.98914718103753    8.73667041619955   15.14210258035292
H        -0.66146941895032    9.73918728713264   14.87008902832826
H        -0.21831679597983    8.25369849382670   15.76084376623450
C        -1.15884870809655   10.53648390589725   10.11986678013538
H        -1.50682861139269    9.88967500010731    9.30667349216789
H        -0.10791803381982   10.79997206110837    9.99007228003378
C        -2.05681822953928   11.75846427428012   10.27221808883014
H        -2.39544556658961   12.13892945471189    9.31140421244942
H        -1.52610800094758   12.54364828059502   10.81203391375885
C        -3.18437554287964   11.19405962967260   11.13020547551097
H        -3.76144065291633   11.96084849387113   11.64162175944583
H        -3.84889279062026   10.57693371174092   10.52429728708699
C        -2.40771257837344   10.31635435969167   12.10419604124359
H        -2.01132853089639   10.90381056075708   12.93983774424114
H        -2.98896273452602    9.46656329938937   12.46488154773315

