97
CSD_code = KIKZUB | q = 0 | S = 0 | Stoichiometry = C46H44O4P2Ru | MND = 6
Ru       -2.26428575120056   -3.11768574703489   -4.99748993704768
P        -3.99001025025487   -4.55238658786646   -4.49771832673305
P        -2.61465919996545   -1.43544884396857   -3.46196540260480
O        -1.67841128232020   -4.42058760090153   -6.51579343519380
O        -0.86327942198288   -3.95637524346246   -3.67414765225318
O        -0.56378626512750   -2.12254404602199   -5.65850826505502
O        -3.44635127055061   -2.23578172889808   -6.49492449536780
C        -0.69698590438773   -5.19329642820925   -6.41613330121987
C         0.13517730951555   -5.38240698531757   -5.30675336447928
H         0.96196997961843   -6.06650439171094   -5.43496801494319
C         0.03477688733094   -4.74338149016873   -4.06759960268277
C        -0.38128165125245   -6.02634880421594   -7.64784043124671
H        -1.07539845485811   -5.77152179513248   -8.44483276365326
H        -0.47999570356780   -7.08431853137615   -7.41264736636733
H         0.63802100614329   -5.83912848203011   -7.97825258458570
C         1.11571183230438   -5.06937243892583   -3.04958851758122
H         0.85985902295453   -4.62578673886490   -2.09051778582644
H         2.06602157682289   -4.66014203852437   -3.38641028888642
H         1.22429970639375   -6.14570197160954   -2.93793139671966
C        -0.53430276814685   -1.45587433602299   -6.71835961287217
C        -1.61258551187304   -1.11853767313203   -7.54556200705745
H        -1.38519094645807   -0.51132206729301   -8.41024312133396
C        -2.94244659453035   -1.51557118010722   -7.39645907509442
C         0.83258248316879   -0.94789165472117   -7.14684773499576
H         1.55030007485378   -1.12585505402923   -6.34943861850932
H         0.79069166931224    0.11508944081250   -7.37091031265572
H         1.15476846426373   -1.47688458109885   -8.04222032352837
C        -3.91759117199721   -1.01510867421752   -8.45105023324802
H        -4.91828386451601   -1.37453381677455   -8.22277883640290
H        -3.62093532746556   -1.37245304233951   -9.43456990081809
H        -3.92220300498403    0.07304452389980   -8.46689111933450
C        -3.83997548436753   -5.55760108857092   -2.98412201299360
C        -2.69461983625316   -6.34778959134094   -2.88802002804455
H        -1.99814975925524   -6.36449852928963   -3.71694213124718
C        -2.45513958850507   -7.10020862352321   -1.75517934822572
H        -1.56502589135512   -7.70937451887795   -1.68821223490636
C        -3.35869603031437   -7.07237628566373   -0.70361204312657
H        -3.17278379517321   -7.65913772794345    0.18446514371776
C        -4.49884661834167   -6.29282380396921   -0.79449215291743
H        -5.20509226129242   -6.27160922590373    0.02298470224437
C        -4.74076940282008   -5.53424001115484   -1.92736385009586
H        -5.63229350707094   -4.92753972409416   -1.98751770271434
C        -4.17916432462116   -5.81964934298950   -5.79789855822956
C        -4.23653184980832   -7.18905842739297   -5.57107858364091
H        -4.19754615673656   -7.57727976416889   -4.56313027079814
C        -4.34577148169066   -8.06282825975582   -6.64071615447846
H        -4.38567305043836   -9.12746688816269   -6.45868944692349
C        -4.40247890788689   -7.57970102002212   -7.93645471788524
H        -4.48003927587970   -8.26711034087837   -8.76661558792646
C        -4.36045022464208   -6.21284202276828   -8.16678723330078
H        -4.40876410742781   -5.83441225867897   -9.17804265916756
C        -4.24876764281288   -5.33699285566717   -7.10460263957047
H        -4.20197513748537   -4.26803232065005   -7.26639861544103
C        -5.70211508471188   -3.92176070153563   -4.37851930521992
C        -6.76071748334256   -4.40619873395284   -5.13777278932436
H        -6.60189445414623   -5.21190613419549   -5.83949819413367
C        -8.02370858085462   -3.85538136116419   -4.99849793433932
H        -8.84043576406596   -4.23527669495426   -5.59549484010209
C        -8.24535245859376   -2.82454533021264   -4.10114846295299
H        -9.23283342075868   -2.39869771999970   -3.99869414610959
C        -7.19573331027556   -2.34008593928812   -3.33659980807694
H        -7.35840421788127   -1.53449393183210   -2.63520590311758
C        -5.93392582617643   -2.88431518003764   -3.47894828944080
H        -5.10496175206217   -2.50756955280193   -2.89374178347117
C        -3.69723285268970   -0.00806573115701   -3.82355556033579
C        -3.49304321236223    1.23408957098813   -3.22456432257782
H        -2.66307599171857    1.37300543478967   -2.54453314394426
C        -4.34310259410739    2.28818542637191   -3.50351403775852
H        -4.17924545926598    3.24844285307556   -3.03538125028752
C        -5.40295248390278    2.11616231594316   -4.38051919465633
H        -6.06358577643494    2.94342010956097   -4.59640907516272
C        -5.60836014063799    0.88578463630630   -4.98107651154593
H        -6.43110828249289    0.74894956477954   -5.66786460626634
C        -4.76045450461739   -0.17255932423250   -4.70366110168647
H        -4.90659144287103   -1.13350825475555   -5.17603097450698
C        -3.06808555158673   -1.83811563170877   -1.73079378514358
C        -2.57498279273385   -3.03510417569096   -1.21641882625624
H        -1.97252790788186   -3.66707568979121   -1.85384761437888
C        -2.86251930691820   -3.41240235017835    0.08220097199890
H        -2.46911104133468   -4.34002833606447    0.47189060516790
C        -3.66286613374616   -2.60780940375070    0.87632296632757
H        -3.89424699816917   -2.90278606128735    1.88949022309663
C        -4.17252157643282   -1.42631867256067    0.36478305923870
H        -4.80484774621414   -0.80033818577485    0.97819387727856
C        -3.87772540071659   -1.03870406521993   -0.93084637561068
H        -4.29021431926749   -0.11880450459096   -1.31898441880267
C        -1.01112924718485   -0.59913749747876   -3.21714017810904
C        -0.11041361822207   -1.01516269750413   -2.24431630467785
H        -0.39749825463974   -1.78355711916705   -1.54133072840823
C         1.15096752826036   -0.45003531120535   -2.17791686215911
H         1.84660607040749   -0.77811869111367   -1.41837661569041
C         1.52698194326836    0.52713038461896   -3.08363538242801
H         2.51452961005242    0.96294624098370   -3.03289575959174
C         0.63644137180590    0.93898347064364   -4.06228724601630
H         0.92992608492933    1.69543116841363   -4.77646576097218
C        -0.62330271345147    0.37660776576944   -4.13345601881984
H        -1.31486623927495    0.68571468143620   -4.90755863712874

