41
CSD_code = KILCOA | q = 0 | S = 0 | Stoichiometry = C17H11ClCuN3O8 | MND = 5
C         5.78886106474760   -1.81547123732741    1.18756028881278
H         5.91859478521608   -1.79749185238428    0.11497213898670
C         5.08083503335368   -2.81485306450099    1.83400083250889
H         4.61530883462641   -3.60788053978257    1.27144555499951
C         4.98675569430373   -2.76068925864400    3.21619805049673
H         4.44722651874368   -3.52217856477327    3.75928599876233
C         5.58344412825048   -1.71375150083654    3.89606922106974
H         5.51792975761717   -1.65930353440228    4.96937236045774
C         6.24846081080291   -0.72825371370602    3.17005086582076
C         6.85532373974826    0.46862266218370    3.77150893629614
C         6.65461811977429    0.84405242721109    5.09615379922116
H         6.03243449432543    0.25024066818311    5.74373975831505
C         7.21678910411892    2.02186777467062    5.55628564926102
H         7.04656835222464    2.34378356952063    6.57258645106873
C         7.98480256215476    2.78516909389703    4.69282300295178
H         8.43639676394542    3.70971323387849    5.01276921886510
C         8.13524162386646    2.34840021080768    3.38860526974268
H         8.70877682203063    2.91253511410745    2.66782299069782
C         6.31733046182580    1.07630867499490   -1.71658046834102
C         6.42571199798102    2.54602436296875   -1.63761677126721
C         5.84845066899368    3.37106552811292   -2.60919309526688
H         5.92915971754414    4.44463056617407   -2.52460187175703
C         5.16299705250056    2.82031374589878   -3.66385128364269
C         5.05239030637058    1.41972940672130   -3.78856327977582
H         4.51079927518056    1.02340794177468   -4.63504233242249
C         5.61385792176467    0.59802387980739   -2.86337801038590
H         5.53110031545417   -0.47420050610588   -2.95324926661385
N         7.58839218365723    1.22809431441849    2.94528658570170
N         6.35508648670898   -0.81908158689758    1.84184035320354
C         7.18483663848850    2.97192240428487   -0.58394399179984
N         4.56935343357942    3.66744944132919   -4.65715437197067
O         6.82462059481970    0.28970961205533   -0.88875533958533
O         7.68400193788431    2.60667420130263    0.41505814024997
O         4.99982787428541    1.74611963939783    0.88589117798618
O         5.35183337208029    2.95900063825928    2.83854222957889
O         3.20981320479487    2.81328542953052    1.91588100068652
O         4.19320830519785    0.94948055813478    2.92421043740782
O         4.70194375430358    4.86674831881621   -4.52768455701662
O         3.97861285646992    3.13227585158457   -5.57249906863147
Cl        4.41016165513988    2.13402489035238    2.16432901681999
Cu        7.01014177513140    0.87208119897776    1.04202437850966

