37
CSD_code = KILHIX | q = 0 | S = 0 | Stoichiometry = C12H19ClHgO4 | MND = 2
Hg        5.41896623575993   -2.10836441072789    8.51674457119650
Cl        7.13494740582299   -3.41569179516594    7.55483932812839
O         4.14418862304513   -1.39598510694349    6.05594440407721
O         5.59768536762941    1.23278364915198    4.97051346009749
O         6.28351628720217   -0.52102522108925    6.23016700561993
O         3.98971172399986    0.32347399708455    8.15088587191119
C         5.31413739170352   -1.04292202090424    5.37188183285813
H         5.69366758858226   -1.95730580997531    4.89727592098946
C         4.95244668491388    0.11312983738439    4.41222908686523
H         5.29270538957180   -0.05863264086210    3.38390587879804
C         3.43131559263502    0.21695390459155    4.52448239583515
H         2.96465283520289   -0.39692847356667    3.75495831657770
H         3.09726780373685    1.24673862998923    4.42756914741817
C         3.16814102879822   -0.36561892079758    5.91858876020529
H         2.20460635050351   -0.87844454596402    5.98783408184546
C         3.26017718937858    0.73768987206866    7.01997068158942
H         3.79164904692120    1.59938347123978    6.60262774972457
C         1.87607549720881    1.09896032806058    7.56463912722650
H         1.10353270443141    1.07646705376831    6.79909118543862
H         1.90714972667100    2.09405136311022    8.00951384084682
C         1.68856985279527    0.03667591953502    8.64699964403212
H         1.01224324418137    0.35514248511145    9.43668970418497
H         1.30390366600401   -0.88512758930699    8.20945489004301
C         3.11598229269276   -0.18562774225646    9.17389766757712
H         3.30475555839199    0.44679646234467   10.05295408054089
C         3.45976195434498   -1.63380192594204    9.51470801389903
H         2.73446247034712   -2.32067934943317    9.07223540829333
H         3.46821844814341   -1.78578534654167   10.59305377851006
C         6.66763097040796    0.77624176995500    5.78177230123876
C         7.96144735393801    0.66641098009789    4.96566900429249
H         8.73193362918834    0.21225375845728    5.58101462312806
H         8.27717241732926    1.65580116982027    4.64810678325353
H         7.80180030871088    0.04282935932619    4.08928859457567
C         6.83866200289304    1.71041088284910    6.97352647530687
H         5.98541755202239    1.60937849443884    7.63812773513776
H         6.91073392097120    2.73336217130294    6.61640857392025
H         7.74046388393135    1.44300533975107    7.51483007481587

