34
CSD_code = KILKIZ | q = 0 | S = 0 | Stoichiometry = C12H18Cl2OTi | MND = 8
Ti        4.71738123834776    0.79501894295680    3.33183157932444
Cl        3.79908978039284    0.13234923722156    1.47503610618481
Cl        5.39245225217841   -1.16146447130878    4.02463992274456
O         3.35434668834232    1.03719044907493    4.29727012009100
C         6.67925494095575    1.66980380211191    4.13096330714904
C         6.82939930881050    1.44773611699345    2.73076354614156
C         5.90408174754544    2.28107252790297    2.05063021633080
C         5.15000499744741    2.99397159972404    3.02982614616715
C         5.63890582908742    2.62547517228722    4.31700522924925
C         7.58082197807556    1.09705425436822    5.18669024119276
C         7.87419693396535    0.56870684354878    2.10605299993209
C         5.81713607549342    2.51015567765751    0.57070961256522
C         4.09310130170657    4.00886464767714    2.69759341075840
C         5.12258291748695    3.08612438671209    5.65121873173217
C         4.23842003041369    2.01201635310764    6.30885645246295
C         2.99902893596895    1.69129039049653    5.45599889843899
H         7.38219132366691    1.54766675209576    6.15675738788264
H         8.62241786347393    1.28901227928015    4.92403134594420
H         7.44629706110832    0.01695284393961    5.27219296921677
H         8.07957722907897   -0.28960610318491    2.74589566307575
H         7.54283895665069    0.20285056403162    1.13420464686808
H         8.80438454247566    1.12468142125031    1.96395281924435
H         6.39212438860785    3.39942956402607    0.29984451705683
H         6.21801835232256    1.66176419812077    0.01970502147070
H         4.78381389854677    2.65994213392307    0.26021601567047
H         3.69308863627308    4.47440771807384    3.59641939639905
H         3.26862520632899    3.53936715852012    2.15395541798137
H         4.51271172306989    4.79272743159063    2.06420991491159
H         5.96375087209125    3.30649451814864    6.31550373611926
H         4.54372119435745    4.00648246991930    5.53566665173578
H         3.91373584689040    2.35182943881809    7.29467437889101
H         4.81134317653784    1.08204708606075    6.42050779143199
H         2.31178175170994    1.05085782627263    6.03420801527596
H         2.46427302059094    2.62372676858190    5.19846779035919

