65
CSD_code = KILLAS | q = 0 | S = 0 | Stoichiometry = C19H38ClN2PSi3Zr | MND = 13
Zr        2.72350922406141    1.64739474620912    7.59149773567111
Cl        3.46104978660978   -0.51404850169984    6.97816577446201
P         2.00938389419772    2.53158388572991   10.07089234849723
N         2.44820204421463    1.02374840847801    9.51379294235059
Si        1.95320536037191   -0.52168843846413   10.14719507240771
C         0.79070127523400   -1.50091592273141    8.97192200520131
C         3.46861720091606   -1.66025169315502   10.42418082219385
C         1.01709891932082   -0.31875848534520   11.80152590121461
N         2.67355377508044    2.71732392346808   11.65920116143406
Si        1.68668910112362    3.86630861768767   12.55960993589528
C         1.07786129752588    5.21206872360163   11.34704481814270
C         0.20033143890085    2.96556732470697   13.35504009011684
C         2.61103383656492    4.74628259556894   13.96792366244719
Si        4.29652145166975    2.22111547895652   12.11814409864540
C         5.26764010482362    1.17422370529632   10.85683213459114
C         4.10680550765896    1.20493362385201   13.72488596046240
C         5.39438173387180    3.76386267960691   12.42866109128806
C         1.13666670894454    3.01786070693236    6.07445682396547
C         1.27704129150995    1.71027902969972    5.56237179895966
C         0.66731950367949    0.82028195130202    6.47946703514690
C         0.17270628623309    1.58169650208301    7.56049452156664
C         0.47546285854080    2.93685664750065    7.31388910050776
C         3.85629402522942    3.89349490474611    7.32030392123382
C         4.05434921702359    3.28595086805116    6.06175058724682
C         4.86464643138713    2.15391154980673    6.24313905661305
C         5.19152447447056    2.06106792925524    7.61322185801339
C         4.57304414519903    3.14444906451095    8.28301673108079
H         1.35818146714439    3.93637140863858    5.54749665182553
H         1.65068040897216    1.44159121827152    4.57960107939167
H         0.49480347330495   -0.23467027573821    6.30374710117595
H        -0.43571607296245    1.21788933788909    8.37794142941288
H         0.13101251260261    3.77848227862158    7.90153241308806
H         3.36442864848538    4.84285297719952    7.49964484464580
H         3.75387469824526    3.68959195410587    5.10390403778234
H         5.25258102854818    1.51490152781773    5.45972759871139
H         5.89688193793179    1.35410558055534    8.03315728097918
H         4.73531625951027    3.43737198377706    9.31334139848975
H         0.68647778696235    2.25179435776706   10.56002520585088
H         0.57001177684678   -2.46151672430800    9.42675394937574
H         1.27850003363299   -1.70087259540460    8.02298806106643
H        -0.15981448604060   -1.01410330759999    8.77790289842934
H         4.14886572482763   -1.62386511605963    9.57862631281488
H         3.12982580563541   -2.68583637568478   10.52437479706731
H         4.02407985688516   -1.40898760141328   11.32048925960964
H         1.06291492167429   -1.22835006237901   12.39002156734284
H        -0.03104714502165   -0.08637948369499   11.64146269882815
H         1.45134812452216    0.48580119608408   12.38243172848378
H         1.90156692794529    5.62230069617885   10.76941720473707
H         0.35503048271551    4.80488103898146   10.64643737110611
H         0.60134393062328    6.03376312930216   11.87255251047175
H        -0.44794089558502    3.67571642508784   13.85906098406961
H        -0.39871714728797    2.43897797602007   12.61982828077590
H         0.52563645884666    2.23837457228878   14.09297896760674
H         3.13881067666264    4.05665424494387   14.61390880073199
H         1.88866630126930    5.27830767612842   14.57678173569145
H         3.32356091709174    5.47327673668142   13.59946871532547
H         6.10324596954317    1.73191127287716   10.44461265735701
H         5.68293863561604    0.29674188199703   11.34144197155494
H         4.63417978127987    0.83877192632523   10.03895163599705
H         3.69237985264653    0.22104478425339   13.52733554359428
H         5.07256972692656    1.06677661679798   14.20034827369990
H         3.45461621376779    1.69678486849272   14.43894664768312
H         5.32324043992986    4.09802635627039   13.45628860741208
H         6.43823587278360    3.53035264039518   12.24316983324620
H         5.12648819953077    4.60286505258238   11.79327295480523

