70
CSD_code = KILLOI | q = 0 | S = 0 | Stoichiometry = C23H39ClN4O2Zn | MND = 5
Zn        5.63260782270418    1.91766539384355    4.03908933883091
Cl        6.04563748919845    2.95947841036903    5.92979449926922
O         6.94612615650358    3.20285761030932    1.73152064731729
H         7.40455225878942    2.23630966233714    1.93794755694211
O         7.80011472381883    0.93219333774262    2.39894186319981
N         5.75881875232878    3.14746524963487    2.39060189909842
N         6.90511340980257    0.58953909538217    3.30871604933485
N         3.59881644468033    2.65955584071130    3.72496785544005
H         3.23669151892935    2.09311961202022    2.95953655144892
N         4.66793742736652    0.03447629673887    4.56348792814691
H         4.18949901574516   -0.31348246698479    3.73269175456300
C         5.01893984485811    4.18192117718072    2.45760688286937
C         3.69696131139766    4.03823475825297    3.18647641657288
C         3.69413786987395    5.09056491838379    4.30553419088719
H         2.72190277863106    5.10517959256730    4.80090395003578
H         4.45448045023212    4.80661212464763    5.03485563562205
C         4.00527223776344    6.49074031754901    3.78202713689523
H         3.97533028834939    7.18823935977423    4.61850470841863
H         3.23524926560776    6.80890318946913    3.07512854751456
C         5.37483570880554    6.55165079209270    3.09320750657984
H         5.48777002355363    7.55322376513240    2.65444155125491
C         5.37547638650728    5.53594672868963    1.93669306389031
H         4.64347987222354    5.85503665691543    1.19105011820710
H         6.35207121463319    5.49008473812879    1.45586067667721
C         6.51152780266473    6.38146122067097    4.08139975945355
C         6.46282704549696    7.31394080767569    5.26190196840021
H         7.45005082772720    7.40906695866710    5.70568190105726
H         5.79269274202753    6.92743491764536    6.02944910034599
H         6.11568226241884    8.30336404788762    4.96685057742622
C         7.51870994679105    5.53576716418881    3.94187372867734
H         7.63009095151053    4.85076698009208    3.12288640829780
H         8.30080966480409    5.49400580428060    4.68131238401482
C         2.53496636725325    4.24980030280602    2.20208920064984
H         2.62895068575620    3.56548066504622    1.35964766084072
H         2.51527097457505    5.26096320334439    1.81079081250291
H         1.58562815859434    4.06531891756074    2.70215875794538
C         2.72112592299800    2.45326890115069    4.87731813526210
H         1.75164345995050    2.95138038280533    4.73429122660374
H         3.20925501482115    2.87591114186870    5.75638050166289
C         2.45811422520422    0.96701559488434    5.11976931500760
H         2.07606507919998    0.50620770038457    4.20244883972700
H         1.67390008357849    0.88981785888234    5.87506110401339
C         3.66849568044895    0.17946715969606    5.62115402186702
H         4.12368472821920    0.71864686044168    6.45289263727666
H         3.32109644881834   -0.79984903502896    5.97838733217600
C         5.78622095032127   -0.91096554848740    4.80006144526304
C         6.84396598615405   -0.61374905367923    3.75437413716225
C         7.82244702545268   -1.66924663381038    3.33955556293545
H         8.62960160860735   -1.69729424860598    4.07925536301878
H         8.26402170817259   -1.34573846035805    2.39347827800972
C         7.22069011054969   -3.07030619085622    3.21801417596933
H         8.04828514403149   -3.78774369587222    3.16763855801637
C         6.41383352958434   -3.36773843228673    4.49008413107160
H         7.08009932503566   -3.33107903884388    5.35326073527543
H         5.99063701125627   -4.37316744595782    4.44242026756125
C         5.28397740140808   -2.36037026417050    4.65971781665967
H         4.63643118319033   -2.42757429354217    3.77989393368377
H         4.69076458958699   -2.62583560618081    5.53801823517811
C         6.37768121875466   -3.27504721976527    1.97982388066005
C         6.24714529329881   -4.70509979892275    1.54316599805012
H         5.56309869859399   -4.79627204536018    0.70361170262303
H         5.88514081397410   -5.33080014788737    2.35793026865252
H         7.22012024204980   -5.09065052659515    1.23921594707970
C         5.78993807172497   -2.29372278646246    1.31421990849025
H         5.19679731643476   -2.49065326611058    0.43588454754112
H         5.89611700415169   -1.25938127501429    1.58717236819979
C         6.39894543049256   -0.67308890341730    6.18295556072776
H         6.60372168343142    0.38552477336949    6.32169541306842
H         7.33797895709715   -1.21201280322245    6.26822431429428
H         5.73412935148476   -1.01344080379693    6.97349574859992

