37
CSD_code = KILMUM | q = 0 | S = 0 | Stoichiometry = C17H15NO3W | MND = 10
W         3.77952906034576    2.78845665573630    1.46052683693203
C         2.05360373220159    1.79966813870780    2.73124612175934
C         1.48621414367406    2.62192141256583    1.73176744173737
C         1.84559453288801    2.08290808803343    0.46080611485060
C         2.63454246848550    0.91860897027094    0.70145340198681
C         2.75672486635419    0.75265463320587    2.09731510018161
C         5.66305502400617    1.89976135036629    2.40875782960908
C         5.60982299750166    3.28630257537374    2.70378765492690
C         4.46299715577460    3.68455900231526    3.44921482644585
C         6.61902594967313    4.17981279245909    2.03777524365419
O         7.45236986630065    3.71575242703736    1.28232047542753
N         6.53650261407762    5.49644107268435    2.37756603684184
C         7.24440327039600    6.58343138787575    1.85243577603562
C         6.93189343197277    7.85001925436221    2.34294284275051
C         7.59257438874991    8.96567461878776    1.86738918559588
C         8.57183113248033    8.83285004014704    0.89702967026351
C         8.88058397582476    7.57554564529000    0.40690918058086
C         8.22676677970652    6.45083698255964    0.87658927032180
C         4.96635614545695    2.97608490734833   -0.10556139606424
O         5.55620279399774    3.14135567986277   -1.07479199513975
C         3.87802223088997    4.66392481309454    0.89031026133527
O         3.95768389162315    5.74375552152788    0.49281673112833
H         1.85424048596659    1.87353475143486    3.79178463629344
H         0.77655858629319    3.42185494455765    1.89715479701186
H         1.41512668395127    2.36921049863655   -0.49221795738710
H         2.95278084226581    0.20894499844919   -0.05077679599310
H         3.19194150443265   -0.10482855215719    2.59149640299074
H         5.35854663413944    1.20874761930219    3.19201929150324
H         6.51330153670917    1.56389096232833    1.82402929142411
H         4.32342989081179    4.72891774218137    3.71626316679705
H         4.17060005077975    3.01760840536199    4.26006376475663
H         5.82020054331645    5.75838673670270    3.04026922819615
H         6.16404748331084    7.95708231427183    3.09737753703880
H         7.34025018157065    9.94179261942599    2.25487112559480
H         9.08783686916797    9.70509630270762    0.52494556799982
H         9.64034368790250    7.46464967540567   -0.35228095386865
H         8.46649456700092    5.47408501177838    0.49279428648541

