79
CSD_code = KILNAU | q = 1 | S = 0 | Stoichiometry = C41H34NP2Ru(1+) | MND = 8
Ru        9.73067394251777    2.50050070768869   15.92789341585233
P        10.23517404648133    1.58016986057030   13.85316077406354
P         7.47417184013778    2.00047335757692   16.01171663049371
N        10.26396062315212    0.62625051858630   17.09398523665415
C         9.99014548849575    4.69029341938722   15.47755339541452
C         9.35238484072107    4.59417950231503   16.74269031934840
C        10.20853313233613    3.90101115186320   17.62253722465648
C        11.41775131772433    3.61740178320696   16.91654251926343
C        11.28933663203105    4.11242309255398   15.60684381614638
C        11.87016533199104    0.77851138375838   13.73017370938390
C        12.77330100543590    0.87816283657731   14.78234039365246
C        14.02536586926486    0.29443555601645   14.69281949916296
C        14.38604838218241   -0.39351928701200   13.54684066593894
C        13.49401474451648   -0.49184468837052   12.48911839425900
C        12.24279462388422    0.08833439435158   12.57560172903159
C         9.20204091587791    0.35253612539482   12.97251445409111
C         9.42012214400702   -1.00862336499274   13.19172171725716
C         8.63258502643014   -1.97116310277769   12.58992067536836
C         7.57330804153023   -1.58516539585518   11.77010323612162
C         7.40820516674714   -0.24701809644846   11.56847387043484
C         8.16662200277998    0.74106842696706   12.11113841409867
C        10.37203856778046    2.91063737107469   12.60364422752550
C         9.27767244829943    3.75646238890408   12.43773505964630
C         9.28841231847402    4.77766659564069   11.50657053760558
C        10.43165851082246    4.99366517101952   10.73752695001017
C        11.47700026371385    4.14564428575327   10.94432913376294
C        11.52145352704935    3.11523134073397   11.82721956487444
C         6.42434750106777    2.54957921808856   14.63294234357939
C         6.41514738881855    3.91092995065761   14.32420494447421
C         5.65272087952795    4.38148734315672   13.27129885650642
C         4.91143922526986    3.49526238681061   12.50434293609091
C         4.93382690197023    2.14140580948736   12.79480326747879
C         5.68674402439338    1.66440897499009   13.85444266832369
C         6.73070907803517    2.80791969291098   17.47234326807817
C         7.31028167830852    2.48979522406005   18.69914511320932
C         6.82006599417167    3.03391764780631   19.86962747187670
C         5.74411050683229    3.90769375932545   19.82535051859794
C         5.15854091648655    4.22116271877670   18.61078941741424
C         5.64413756465226    3.67301545455585   17.43462440019784
C         6.86574361820926    0.30112469109123   16.29252600741821
C         5.58782537497580    0.12339262367645   16.88388090647146
C         5.34541072777689   -1.20480781699513   16.96893113839146
C         6.07322393278784   -2.17976563803343   16.60143268683589
C         7.30021838844976   -2.11739952981398   16.01779612458762
C         7.66924140828104   -0.76736905261433   15.88555749882815
H         9.66439615924626    5.30276448071476   14.64796576812707
H         9.46174475301194    0.08705370198440   17.42247473571042
H        10.77933427747151    0.94652771866315   17.91583167715648
H        10.87284620065620   -0.01337374784797   16.58309468525832
H         8.41316793768948    5.05453166377446   17.01767925270014
H        10.05865027230109    3.79371439655270   18.68789399616074
H        12.32931777193237    3.24198114372691   17.36425594035995
H        12.07072620782410    4.15634091760456   14.86024894357304
H        12.49560297186443    1.43525216104539   15.66883573163407
H        14.72077790523772    0.37950270448726   15.51453328274601
H        15.36139521054370   -0.84889236004457   13.47440593384579
H        13.77695694231268   -1.02017294862320   11.59153786973848
H        11.55083427142096    0.01250488645280   11.74836278057209
H        10.23742690686374   -1.32046611033424   13.83040786145585
H         8.82951085259885   -3.02029778911398   12.75572055315398
H         6.93060402812935   -2.32152577191024   11.31427204972251
H         7.99999688933861    1.78090290759640   11.87803017931155
H         8.40818078298692    3.61474120111210   13.06778621138197
H         8.42454809272851    5.41475871505622   11.38184460011510
H        10.47356252865232    5.79837014812648   10.02087837259476
H        12.39077609847958    2.48505057146183   11.93370972323792
H         7.00643228788634    4.59513724274448   14.92051491367229
H         5.63742876128136    5.43775392902343   13.04693945756059
H         4.31885069428795    3.86147286208833   11.68029291804429
H         4.36363006240585    1.44991619238606   12.19394196330804
H         5.70054612658535    0.60718420731286   14.07509070068699
H         8.14884171950024    1.80221158170423   18.72292623767238
H         7.27165241208712    2.77961460781334   20.81691600582515
H         5.36136196141576    4.33888202722019   20.73726652493746
H         4.31510801233726    4.89397594512706   18.57536731726934
H         5.17061796098878    3.91569512856387   16.49438243244977
H         4.95772989021689    0.94154469549987   17.18948132863870
H         7.91985764295957   -2.93583965425435   15.69337242255804
H         8.61260954261688   -0.52679614822343   15.41088249626946

