121
CSD_code = KILQON | q = 0 | S = 0 | Stoichiometry = C48H60N4O8Pd | MND = 4
Pd        2.41772112621591    7.46984455394452   14.54867991667157
O         6.20418494573711    4.21810390104257    7.67035377509283
O         6.11556874073459    2.98837984438162    9.54536736885086
O         0.84635027784289   -0.06321045639161   18.14152876545892
O        -0.81713056871480    1.40834811304348   17.82097232780328
N         3.91450428778756    7.39905258711788   13.18750204399499
N         2.58978410404843    9.48515684207705   14.63274297075808
C         3.46384778423428   10.25574420873211   13.92821949522735
C         4.40552585364065    9.78987811517816   13.02446638288565
H         5.03920365096788   10.51768383683158   12.54147449763015
C         4.60278982439735    8.46138264057394   12.68508884255525
C         5.58346812477395    8.00639218584860   11.72374175278005
C         6.50190709547714    8.90453835426223   10.97263926547315
H         7.13470851994984    8.33290667228795   10.29908819074522
H         7.13923652723040    9.46128347727399   11.65905433775503
H         5.93584464711694    9.62634618627398   10.38470376590912
C         5.47276983693422    6.65045327335193   11.67201941368232
C         6.21388309474071    5.67780715981750   10.81959549827658
H         6.44294655344486    4.77664144543303   11.39243385435998
H         7.15770063021774    6.11084598414873   10.48453410475003
C         5.37225259680366    5.27588239858465    9.59524105330466
H         4.35426256537266    5.05307823400022    9.92268392824382
H         5.33956872450546    6.07921288567563    8.86061337829882
C         5.93543762389377    4.02611567822499    8.96003273242623
C         6.75046171294804    3.11413150015783    6.92710997528827
H         6.30517253527614    2.19213778168524    7.32343596948239
C         6.35722380944794    3.31717786162265    5.47152022391887
H         5.27607557931936    3.37752962171327    5.37812576850330
H         6.71834878586775    2.48596017209775    4.87306739507035
H         6.79032150061656    4.24106881779789    5.09706489517084
C         8.26267948997302    3.06877854215618    7.11749453822494
H         8.68276967433859    2.24875173156095    6.54234574655615
H         8.49981489738807    2.91790088895361    8.16790159282650
H         8.70810065177394    4.00345971327826    6.78418837121996
C         4.42079922503744    6.28264767744613   12.59468941789220
C         4.00513179814485    4.98218840580488   12.83236475281305
H         4.50714559792287    4.19055305447986   12.29778497162492
C         2.99603750189122    4.60917888514104   13.70497565562501
C         2.58709091447938    3.24068146079206   13.93556662580607
C         3.20673645081584    2.05764868601516   13.27923841680646
H         2.70325785300540    1.14257901921812   13.57939528398311
H         4.25817589401986    1.97816415150812   13.55452957678899
H         3.15192877436355    2.14475882270050   12.19467323226313
C         1.57369832411081    3.28872648028401   14.84336232352226
C         0.80835495544165    2.16885783661217   15.46136896604914
H         0.87021549278436    1.27743112150206   14.83520928851733
H        -0.24502389546192    2.44334381476916   15.55119252019902
C         1.34713934399418    1.84541100667634   16.86633247041302
H         2.27979603992323    1.28574321514726   16.81287271302640
H         1.52711456824930    2.78088555928872   17.40109781534843
C         0.32404650703442    1.05952385195713   17.65314708452278
C        -0.01061737939725   -0.92036692737465   18.91666071789926
H        -0.71895327910064   -0.28106739329457   19.45972699844972
C        -0.77931647153287   -1.84988582640421   17.98383617073445
H        -1.41716924203931   -2.51045894603658   18.56394061988877
H        -0.08449429587344   -2.44795323949167   17.39853059225729
H        -1.40072256573133   -1.26667910527879   17.30845862166740
C         0.87783912117225   -1.68256518030070   19.88839073713905
H         0.26872587090876   -2.32439962944027   20.51811358374134
H         1.42976699567108   -0.98947214266057   20.51787789760204
H         1.58861847397211   -2.29344459948348   19.33798964763475
O        -1.36164596088999   10.72323914278550   21.43130795376421
O        -1.28513871141746   11.95034682085114   19.55404339647860
O         3.98880654718337   15.00230721853360   10.95585229446540
O         5.65672359230879   13.53729153488889   11.28338180157895
N         0.92361010110413    7.54030347391727   15.91279532382562
N         2.24781646534662    5.45423829599675   14.46697408446444
C         1.37397461084819    4.68361862764764   15.17172952878723
C         0.43306492487821    5.14939617899991   16.07633089616958
H        -0.20030767600135    4.42155976295215   16.55967889169137
C         0.23609022193114    6.47785910944759   16.41600812345265
C        -0.74417768266406    6.93277418489499   17.37780926924868
C        -1.66178922734174    6.03442657028477   18.12968005054896
H        -2.29343203037602    6.60578316734908   18.80454833265826
H        -2.30030514200790    5.47833922913108   17.44382465271324
H        -1.09509618930828    5.31202124210633   18.71625583359875
C        -0.63407920629176    8.28879155724716   17.42895676384728
C        -1.37568431267847    9.26133561984846   18.28109566290805
H        -1.60616311188174   10.16180312933302   17.70772181557096
H        -2.31881450935855    8.82743511988835   18.61698840181091
C        -0.53404944657921    9.66527885563336   19.50470838978622
H         0.48331292245003    9.89001687559805   19.17658271750027
H        -0.49911516266468    8.86227870273889   20.23960400907059
C        -1.09906301804502   10.91413177899147   20.14018708311344
C        -1.90794781758733   11.82658865979669   22.17546296052832
H        -1.46821001013915   12.74947540381105   21.77503970717337
C        -1.50609881668972   11.62765809606957   23.62927844147434
H        -0.42424740368798   11.57142668155007   23.71692248204076
H        -1.86702114815922   12.45863783909544   24.22818344608401
H        -1.93377055196988   10.70287178354626   24.00774272009336
C        -3.42133588632664   11.86605239311024   21.99324940935647
H        -3.84122085591470   12.68581536001486   22.56893004137794
H        -3.66477689858336   12.01379774993984   20.94384101679206
H        -3.86156182649063   10.93051117102068   22.33101220105762
C         0.41722863079436    8.65670372937663   16.50555714041197
C         0.83196266151803    9.95726781777715   16.26681328666118
H         0.32945630106498   10.74894248793562   16.80087798240668
C         1.84083854821982   10.33030189757267   15.39394049162865
C         2.24912246067132   11.69886039580408   15.16255841526215
C         1.62824895248414   12.88205617892187   15.81743829820094
H         2.13022797908453   13.79735413323379   15.51547698564021
H         0.57651314521650   12.95960416297370   15.54274559032094
H         1.68394406387295   12.79675300945086   16.90210890819115
C         3.26323313587709   11.65074311775492   14.25556081032952
C         4.02871295432049   12.77065345567448   13.63779903169778
H         3.96602608001402   13.66220188829230   14.26371011205057
H         5.08227572186195   12.49656102011519   13.54895950069467
C         3.49121222966904   13.09375117189915   12.23232168231178
H         2.55735881340296   13.65152926568561   12.28471926451735
H         3.31377825399641   12.15825453466505   11.69671964339193
C         4.51385789332045   13.88227256838634   11.44752237000002
C         4.84485582809567   15.86171222211284   10.18220102637254
H         5.55984377672737   15.22468502898808    9.64522387935946
C         5.60296192281771   16.79885681263444   11.11606301896139
H         6.24102921919394   17.46042151259466   10.53732574819071
H         4.90146558410553   17.39563083173999   11.69468992292384
H         6.22313166808245   16.22153283614385   11.79761526957556
C         3.95737940438815   16.61543977427014    9.20298577351002
H         4.56634523232403   17.25791415616099    8.57376985356534
H         3.41226173233814   15.91697610360412    8.57349898737206
H         3.24065324545212   17.22481373687548    9.74731046200575

