121
CSD_code = KILQIH | q = 0 | S = 0 | Stoichiometry = C48H60N4O8Pt | MND = 4
Pt        2.45853238654479    7.46946570311383   14.60001546726211
O         6.17758214268028    4.35202708657820    7.69490889368384
O         6.40880526654618    3.22379756517480    9.62083702412740
O         0.88907405208526    0.06215635103647   18.26434844365249
O        -0.76042132581601    1.45074545545877   17.64385098788106
N         3.96914705604902    7.46721979569429   13.27259831227996
N         2.57151840277844    9.47319092606035   14.72705871449618
C         3.43567252794361   10.28592915020080   14.05602983367589
C         4.40678054426291    9.86945669521575   13.16424898954085
H         5.03038438649737   10.62357237450066   12.71030526537729
C         4.64279470242243    8.55602488019790   12.80479116514075
C         5.65122186837795    8.15025358573730   11.85356947422517
C         6.56075570019789    9.09017678784812   11.14411767592410
H         7.23354755828649    8.55027948236980   10.48325696215839
H         7.15649434570686    9.65841515428119   11.85772239299972
H         5.98869354248919    9.80108875699398   10.54864128731067
C         5.57444023089118    6.79433531356630   11.76616910993362
C         6.35013658608756    5.86166599301375   10.90002956669831
H         6.59729515574715    4.95276895674495   11.45261280074161
H         7.28602544981544    6.32713927291503   10.58734882237674
C         5.53466095831135    5.46703894229524    9.65778159234216
H         4.50910078361582    5.24264794119063    9.96234046454612
H         5.50846054777013    6.27305423260658    8.92563139167548
C         6.09448768645862    4.21780092418152    9.01708176199489
C         6.67048531909185    3.23374174809663    6.93578789021218
H         6.33736615205119    2.31631539272627    7.43844207048787
C         6.06147146893613    3.33538097686685    5.54531773504139
H         4.97644155618610    3.33345237986347    5.60760868736784
H         6.38280329599255    2.49265316216162    4.94040636719095
H         6.38029919871165    4.25865734800416    5.06888868375705
C         8.19445377121295    3.26973701705371    6.90477137627358
H         8.57077220679924    2.43535739408064    6.32016073105742
H         8.58786115418661    3.19514992921136    7.91573867588073
H         8.53635988877408    4.20103905945621    6.45890612988869
C         4.51804807795118    6.38000411296720   12.66043122666220
C         4.13736330353593    5.06583686030251   12.86013668345636
H         4.66913840451242    4.30009080207011   12.31744865933448
C         3.12734111816411    4.65209460900872   13.70807384071026
C         2.75389444580686    3.27025359164111   13.90417575673095
C         3.41624369991659    2.11851956473589   13.23403533541435
H         2.93814992971107    1.18366063088157   13.51401625002933
H         4.46707874632648    2.06661574032392   13.51780665582751
H         3.36803341981435    2.22238324042384   12.15060148053266
C         1.72599641186883    3.27235663095712   14.79585746032519
C         0.97702011460615    2.12408297749802   15.38103069424903
H         1.09073891490229    1.23887322116118   14.75376966804432
H        -0.08738012907732    2.36517959703333   15.43000723774880
C         1.46658084733560    1.81067777407047   16.80554085755906
H         2.37285533493034    1.20694606425381   16.79539921652486
H         1.68200522693975    2.74933935028963   17.32258941548077
C         0.39283054170909    1.10387890533855   17.60098320830042
C        -0.01151003072771   -0.69782786594186   19.09026774283767
H        -0.74965846467705   -0.00056291451326   19.50790705492068
C        -0.72654629773097   -1.74249079203689   18.24041183343120
H        -1.39699883750553   -2.32810696228688   18.86279456200818
H        -0.00031113903147   -2.40566976915914   17.77586790466664
H        -1.30807185925054   -1.25328387612823   17.46269776442946
C         0.82013384316176   -1.32594500071198   20.19863362784699
H         0.17598316211082   -1.88769462987422   20.86873188106693
H         1.33593031605535   -0.55572274783460   20.76602464583701
H         1.56063642637607   -1.99638796135504   19.77030829946674
O        -1.26982851031112   10.59189391445031   21.49980603154972
O        -1.50360836658454   11.71622342074325   19.57177630125053
O         4.02336880873368   14.87513481314788   10.93247589181681
O         5.68162604876127   13.50405990072399   11.56842791339293
N         0.94816552581247    7.47165974508778   15.92769705138532
N         2.34594054043961    5.46569699969671   14.47343795652287
C         1.48266592004534    4.65286588805959   15.14546112769969
C         0.51195966343634    5.06923397580382   16.03773482616808
H        -0.11091074296697    4.31505023189883   16.49257912795006
C         0.27515649719835    6.38276561231197   16.39624189122607
C        -0.73409667957290    6.78863845841051   17.34653693004713
C        -1.64340650337731    5.84873662363600   18.05627843116796
H        -2.31516759014189    6.38853126640692   18.71826722568464
H        -2.24025776057463    5.28141504465553   17.34286631953061
H        -1.07120093120979    5.13694313259380   18.65051290898032
C        -0.65863757153505    8.14472968068654   17.43241651690704
C        -1.43638331899406    9.07760523362385   18.29644005713175
H        -1.68427441130637    9.98534684042655   17.74226591104408
H        -2.37198153471301    8.61126815740070   18.60873676258365
C        -0.62305225479092    9.47533304449587   19.53907594813623
H         0.40246833650335    9.70152000719440   19.23562847148610
H        -0.59605396256405    8.67027656032782   20.27222756565981
C        -1.18708062349568   10.72400473490845   20.17732925478954
C        -1.76709192240063   11.70967849257789   22.25677184452973
H        -1.43961371698694   12.62752628196264   21.75115324785365
C        -1.15559995277344   11.61488411242338   23.64663689541556
H        -0.07070298455942   11.62265868859332   23.58272903353137
H        -1.48068996237494   12.45737655725292   24.24986430913236
H        -1.46860910839738   10.69108377702983   24.12590108897280
C        -3.29080287145235   11.66530303364744   22.29009408470092
H        -3.67093155992607   12.49880083869173   22.87347577622537
H        -3.68604856889389   11.73557362510598   21.27953004807419
H        -3.62698849029242   10.73305617025948   22.73833406973358
C         0.39811566919254    8.55901820518683   16.53857434597844
C         0.77841300145702    9.87323822365020   16.33844744920671
H         0.24569784956326   10.63906775283157   16.88009520947648
C         1.78936911998917   10.28688114152984   15.49156243632230
C         2.16321011994197   11.66866187489331   15.29587988988579
C         1.50028888240881   12.82049135115122   15.96530550125644
H         1.97857327881484   13.75531318037596   15.68553446648147
H         0.44966484899388   12.87233165730161   15.68075405048902
H         1.54771064679782   12.71681865635486   17.04879672311124
C         3.19224066909958   11.66646039238923   14.40548577414825
C         3.94182333613232   12.81488081088476   13.82138910605851
H         3.82775253800524   13.69975868230194   14.44907410257192
H         5.00627688714177   12.57396823003691   13.77284764746046
C         3.45319771787771   13.12917252653489   12.39691164408490
H         2.54471456968901   13.72961439393043   12.40672341499993
H         3.24152385878386   12.19079696062613   11.87774063910756
C         4.52525262498097   13.84113777225157   11.60375466336503
C         4.92137307959595   15.63870079700482   10.10710406996829
H         5.66933475869970   14.94632682874404    9.69889537055871
C         5.62010374604845   16.69638198934228   10.95443395875627
H         6.28775438062187   17.28545927068061   10.33229486983880
H         4.88394957724387   17.35441092924716   11.41062276962943
H         6.20234226472149   16.21837744243776   11.73856455237012
C         4.09050709648476   16.25076562067964    8.98919365566923
H         4.73301431645651   16.81531117032125    8.31986515672334
H         3.58696884914993   15.47141536917321    8.42325122469498
H         3.33986477591802   16.91572701827967    9.40831277684943

