78
CSD_code = KILQAZ | q = 0 | S = 0 | Stoichiometry = C34H36N4O3Pt | MND = 4
Pt        3.23705926283672    7.18558142757482   20.88359523891227
O         8.25655506274765    4.54984753899372   17.87419583277138
O         6.55984185327497    1.94032619220325   23.75434911612470
O         5.21272310615912    2.85555771548601   25.29282232104850
N         1.51393301995451    7.30153729170967   21.89448078758317
N         3.40728224792500    9.17948436363840   20.85248185330957
N         4.93897074537669    7.11165127190904   19.88960147482320
N         3.11386503503403    5.12458115131994   20.87019762688481
C         0.72544411833346    6.27365290324989   22.28111330685999
C        -0.41850243283819    6.76623643191571   23.01082816064640
C        -1.47856386841370    5.89883178051749   23.59433289396189
H        -2.23578846863500    6.49860766661553   24.09163067082699
H        -1.04931576238547    5.21284276949612   24.32443480038416
H        -1.96078899931476    5.30680563923332   22.81653973739685
C        -0.30493629230559    8.12325270792558   23.04282733199199
C        -1.20352842047052    9.11597228872868   23.70068556005977
H        -1.28564153551948   10.01035592891606   23.07949180948858
H        -2.20440335258065    8.69243380601162   23.80312566780454
C        -0.67427781263247    9.50130389110122   25.08439577483196
H        -1.32892908133898   10.23332214211535   25.55215394782934
H         0.32419782233043    9.92483423950221   25.00531885523224
H        -0.62137366896561    8.62338933191340   25.72405530671230
C         0.91261054986839    8.45163150031796   22.33652017515934
C         1.38446378528295    9.72659619405138   22.12021291972066
H         0.80599417537842   10.54674411050994   22.51618380409956
C         2.54038003046099   10.05875142826013   21.42248777622655
C         2.98228376816952   11.41036134789088   21.19734407026585
C         2.27345554270811   12.62201473814708   21.69467319011927
H         2.79382291301833   13.52457800311667   21.38662700294136
H         2.21932608624355   12.61256569928457   22.78321433175489
H         1.25632128849953   12.65877333163337   21.30480854471525
C         4.12997912234443   11.32946621791918   20.46484640037048
C         5.00306036963163   12.44473822202141   19.99375725667466
H         4.40876417459110   13.35495848932571   19.89363304651354
H         5.41065582403580   12.20899361963904   19.00866385721986
C         6.14946691154550   12.69705012030849   20.97620224628835
H         6.78414517139173   13.50597551033384   20.62123679966455
H         6.75613964785176   11.80192678300929   21.09186304226785
H         5.75447817144706   12.96810253965776   21.95253529164702
C         4.39525694157226    9.92740061510989   20.25996581760967
C         5.49596852703933    9.44019654861972   19.57195180521237
H         6.18868905588068   10.15431409115661   19.15458293070079
C         5.76800866759128    8.09608338459718   19.39354059170871
C         6.89707465081921    7.50849898080676   18.71328000988016
C         7.99957230776338    8.24573863770827   18.04923725189207
H         8.70535156235477    7.53932338307336   17.62078410148946
H         8.52268482864804    8.88046572579246   18.76474355801528
H         7.61020197608105    8.88423364974972   17.25607408121013
C         6.71929954849534    6.14450350491138   18.82501496709309
C         7.26189989243262    4.83661554171937   18.49935237951781
C         6.29280662247702    3.80628659935873   19.12808141134958
H         6.84230222635091    3.21367383185484   19.86267602838412
H         5.93148642944603    3.12045984204565   18.35903689812619
C         5.50690809839120    5.95962821986115   19.55122442324541
C         5.18449922572908    4.61805598250792   19.75282389264415
C         4.03856277248768    4.23993224376568   20.38846518191711
C         3.65178949460774    2.80952451620805   20.66972053381282
H         3.78154496996420    2.19084208013537   19.77795475590568
C         4.50904707888798    2.21013247846084   21.79363224186358
H         4.11806591361072    1.22205976385488   22.04667992305089
H         5.53218518469503    2.07583581175758   21.44111758829690
C         4.54980238467456    3.07930285260253   23.04930874023741
H         3.57986402028442    3.14745309947946   23.54180584867050
H         4.86197091806118    4.09521101802142   22.78739435213681
C         5.56317421635813    2.54992561333365   24.03693855464255
C         6.11057074018500    2.44622457270554   26.31627349875155
H         5.59584393890793    2.61223901133737   27.25898713162736
H         7.02699987769004    3.03795800745623   26.27286226984567
H         6.36647748236573    1.39183384519326   26.19513759983910
C         2.17590823887750    2.95066475021371   21.05025865655505
H         1.91471932692756    2.34877161567768   21.92385971970755
C         1.24475167790041    2.57610807420171   19.89484252587311
H         0.20864736387364    2.76904622440937   20.16254800883296
H         1.35029272054913    1.52110961637346   19.65131367101150
H         1.48561469073272    3.16487144839244   19.01212893223251
C         2.05835367149133    4.43034571616013   21.34555803566149
C         0.96609201628060    4.92962045925256   22.00316599693172
H         0.22484062844417    4.21887230662856   22.33620825341524

