42
CSD_code = KILRIH | q = 1 | S = 0 | Stoichiometry = C14H24RhS3(1+) | MND = 7
Rh       10.21949590672362    7.77306223483211    3.80530663982494
S         8.11443187362595    7.57620107696750    2.86875183858000
C         8.06671568947255    5.80194008752104    2.41298102887348
C         9.30016568851129    5.32769773758791    1.67803400272198
S        10.83960541791805    5.94549734760750    2.48585893524589
C        11.76830206032775    6.57118970524454    1.04077898088270
C        11.18675894216882    7.76498326996278    0.30044278131219
S        10.79453553547292    9.18812638443835    1.39085757679703
C         9.03677683655771    9.50601505426594    1.00388120656982
C         8.07239543945077    8.35245397013292    1.19961348173524
C         9.77998189542570    9.56442608619595    4.94289514580078
C         9.25844390053372    8.47545046235318    5.62806331135931
C         9.87370295297659    7.80685253451803    6.82982482302964
C        11.38836744771141    7.58576299979434    6.70094321971878
C        11.80507873026291    7.30573710890171    5.27660931686077
C        12.24457911438715    8.28005170893075    4.40064024659943
C        12.30268104298146    9.75712561984662    4.69932720308008
C        11.02801951842283   10.30629486883568    5.36708596681827
H         7.16125348310204    5.63407915229294    1.82807549929358
H         7.96943973539776    5.29099269152851    3.37200114479668
H         9.35417855362462    4.23846361698332    1.69892234763815
H         9.31547674874384    5.65446229210641    0.63987245157167
H        11.88669561453356    5.72694306698912    0.35978228760119
H        12.74589337791971    6.82508737260385    1.45091674533734
H        11.93179864654202    8.11666027166256   -0.41409600213208
H        10.28322855462071    7.50857823867664   -0.24851767699953
H         8.98432280865034    9.84731315760786   -0.03138348926802
H         8.78193935288626   10.33849403469006    1.65965139902183
H         7.05399418504607    8.72528167725583    1.07806222556952
H         8.23530859957300    7.56454830618881    0.46677106164808
H         9.07919194516407   10.15401664620459    4.35104733206892
H         8.18684495018459    8.29463068205755    5.54088153959391
H         9.38328185387561    6.84074799980769    6.96682362363349
H         9.65055592530032    8.40788621212018    7.71656775020720
H        11.93770015021218    8.45263526306374    7.06561153418897
H        11.67133731528167    6.73583385283872    7.32248960440327
H        12.10193342892395    6.27637198185365    5.08020604196037
H        12.91065136901073    7.97468671818412    3.59368220385757
H        13.17206431833316    9.95417607986053    5.33321258448205
H        12.46396432224942   10.28447075036438    3.75714622728719
H        11.11071008311011   10.26064396033598    6.45251069438584
H        10.92269668479058   11.35662771679777    5.09506716405709

