72
CSD_code = KILRIG | q = 0 | S = 0 | Stoichiometry = C22H40F6IrP3 | MND = 4
Ir        1.57337858795742    2.49350046969618    3.06620952141977
P        -0.42869036942009    3.36521453543594    2.29657126127564
C        -0.47338459768028    4.48434977783168    0.80721662365168
C        -1.81771303958496    5.04808348532423    0.36328160117728
C        -1.48980314429229    4.29972674326678    3.49315757996889
C        -0.84751614309531    5.60481482861775    3.94384737157669
C        -1.65087792550871    2.07074909972651    1.79446941616032
C        -1.08556625945561    1.15823619215765    0.71497245675924
P         3.33032243324397    1.17364199935152    3.80258004382366
C         2.92455014020533   -0.25876370396649    4.91013450153379
C         4.07188715005494   -1.14837126528872    5.37219992849861
C         4.73022916933052    1.97096058705394    4.71432532701659
C         4.26992181096651    2.55897066687353    6.04214793584173
C         4.25766885251017    0.34311857587783    2.43474440700923
C         3.30992239499560   -0.48230369477984    1.57445043860927
P         2.90841982184343    3.79017086392400    1.78067151028988
C         2.92007370420744    3.98088175955992   -0.06816214610677
C         2.73251240070349    2.62739405125982   -0.73810839299516
C         3.01140026884842    5.56745393276590    2.28316318371807
C         3.27963105786834    5.64976140204764    3.77906975379046
F         4.54419798389854    3.53753348740319    1.86639039347222
C         0.40927249873045    1.57292150541432    4.47083155999861
C         0.23016598425187    2.24287898557947    5.68336834812765
C        -0.51218237266246    1.76556948031757    6.75006220265630
C        -1.13851154818302    0.52916435355320    6.63855188758648
C        -0.98844348172605   -0.19320676410232    5.46119143114117
C        -0.23070690632817    0.33338973069425    4.42577354469888
F         0.83701832120190    3.45171151658816    5.82443500385527
F        -0.63512574950307    2.48083635677086    7.88418260541698
F        -1.87108164009565    0.03904361377668    7.65393371578493
F        -1.57745837098974   -1.39784019338734    5.33704084594509
F        -0.09442911311343   -0.42558745305363    3.30893549201278
H        -0.03625620122541    3.90456866997456   -0.00940449406622
H         0.21186380808910    5.30934684763057    1.01811877649257
H        -1.67728906554024    5.66026051279458   -0.52683410225917
H        -2.26072754003838    5.67597933616060    1.13160832785059
H        -2.51889469622069    4.25659732948629    0.11273681855421
H        -1.63514021260950    3.64481907254271    4.35586848755107
H        -2.47137647023777    4.48052471722191    3.04781950177356
H        -1.46121003739558    6.08850069739623    4.70138171073225
H        -0.73001427670234    6.29413723994278    3.11018780133124
H         0.13190305434486    5.41158013250985    4.37311657147334
H        -2.58225388654480    2.53730737664469    1.46548390636404
H        -1.87295417158570    1.48606240269992    2.68955930714383
H        -1.75833479911510    0.32420282244263    0.52858026728690
H        -0.12788012108810    0.75690396890964    1.04046423537258
H        -0.94211601107779    1.69668132536197   -0.21965338917089
H         2.19321191202534   -0.86146164413398    4.36819907479215
H         2.40943638805069    0.15930886856638    5.77905815663614
H         3.67730516774643   -1.94563890591789    6.00015144668643
H         4.79900884044296   -0.59262129778263    5.95871868016530
H         4.58187158119283   -1.61117823922998    4.53121653367043
H         5.11573661683578    2.76380891632156    4.07224832641791
H         5.53375162662007    1.24600281642801    4.86398329711182
H         5.06532917644043    3.14472624220916    6.49946633610747
H         3.98359765980525    1.77498168941339    6.73959302285767
H         3.41112246282959    3.20810771820664    5.88940648459656
H         5.06230591509734   -0.27419797438363    2.83931081786626
H         4.71399628752283    1.13182788252342    1.83470626776853
H         3.80950206678559   -0.83987798106178    0.67598005645051
H         2.45633742465364    0.12789724321947    1.28205540480624
H         2.93491521240252   -1.34335906490998    2.12167955389450
H         3.88024516498496    4.41906609457491   -0.34974648991571
H         2.12918322154716    4.66979727824175   -0.36294153735690
H         2.70777005572074    2.72631324100607   -1.82186423210529
H         1.80221907133599    2.16950998777914   -0.40636047348619
H         3.54962386836433    1.96115753715918   -0.47172216776683
H         2.06149362950394    6.04705446720507    2.04649478171439
H         3.80389087443396    6.05853281842446    1.71370854044164
H         3.25301323890377    6.68035648503769    4.12706934479442
H         4.25697253726521    5.23235311727543    4.00924790366332
H         2.52935870725848    5.07735532582491    4.32206779002485

