67
CSD_code = KILTEE | q = 0 | S = 0 | Stoichiometry = C18H44Cl2OsP2 | MND = 6
Os        1.98794147551310    1.19270908413327    3.18184832206080
H         3.34790584496024    1.63433084781861    3.78888482522899
H         0.92633346434293    2.04784331179061    2.45940737856564
Cl        2.85441674461126   -0.79108317722872    2.42656088121743
Cl        0.34038072645240   -0.14768251770947    4.02445933271009
P         1.26694137377695    2.74599578222478    4.88978896196242
P         3.16839905352730    2.04084265370997    1.26645993403809
C         1.02715282809186    1.81916859934023    6.50049577494128
C         0.66912586376327    2.66298640485476    7.71965183171846
C         2.20105380704849    0.89336936565994    6.81437725058978
C         2.39278447816999    4.22640639091923    5.20476067079441
C         1.80827344274470    5.42280165801723    5.95423943861073
C         3.69706659252485    3.79261337198132    5.86884868046757
C        -0.38745136803425    3.59591283767733    4.68113855570692
C        -0.38771546089952    4.43304884956820    3.40492776642727
C        -1.55473634339326    2.61600635752542    4.65621103352724
C         4.83168729188990    1.26673589851195    0.88119094818611
C         5.76832156862282    1.20307931331209    2.08369097932227
C         5.56306092654499    1.84842969633967   -0.32575778055518
C         2.25571219172627    1.73192697226676   -0.34559149566625
C         0.83387011036110    2.28471720877771   -0.28947421609466
C         2.20938555878650    0.25744614205480   -0.73342532010124
C         3.34143466279161    3.91858582645077    1.24665932308297
C         4.48782402677692    4.34205141248977    2.16154983974286
C         3.45939212703331    4.62280926302203   -0.10295612893393
H         0.17258286687211    1.17745807206098    6.25227383470513
H         1.52610794544546    3.23177457331132    8.07187078604930
H         0.36080231368093    1.99977888909255    8.52742587785223
H        -0.15345801267102    3.34417369096289    7.51769881979070
H         2.49901206785884    0.33538395468342    5.92509123089020
H         3.06443289840212    1.43967991584315    7.18368652062611
H         1.90301522302434    0.17302226174495    7.57512650957500
H         2.62966322060598    4.54603916408553    4.18270429050535
H         2.59066678028561    6.17359146679794    6.06385273378241
H         0.98548190295950    5.88419232880916    5.41700058196078
H         1.46830336324214    5.15312510033615    6.94868088619177
H         4.05795588849899    2.86280582507253    5.43333418806131
H         3.56014485488613    3.65178753629147    6.93773228271142
H         4.46095907613984    4.55601009158009    5.72745394527006
H        -0.50304046230938    4.26113806556129    5.54349861154270
H         0.46578964641689    5.10559202922567    3.36060439440290
H        -0.34931460606909    3.77822865870064    2.53714895958708
H        -1.29943449015721    5.02581088353883    3.34695540487706
H        -1.38116990681284    1.83667414244848    3.91905011544448
H        -1.70645999040242    2.14507759779771    5.62394592586202
H        -2.47007394677103    3.14356415554586    4.39084542985482
H         4.54226519088115    0.23393694322932    0.65539663681376
H         6.17780201322179    2.17666710703186    2.33580981939205
H         5.24453343573310    0.80735197526244    2.94951458481538
H         6.59697723444684    0.53347826692898    1.85786401276264
H         6.40785286666443    1.20408412404781   -0.56733233380331
H         5.95735223748961    2.83762983244434   -0.10778658268148
H         4.92814933471571    1.90419906289056   -1.20578467117270
H         2.81606828285400    2.28178836470872   -1.11015159350377
H         0.80756784729313    3.30255683073264    0.09395456121620
H         0.39436259028227    2.27801197820255   -1.28643882779627
H         0.21748545621910    1.66078202365229    0.35510290311139
H         1.55877047437330    0.12951725211644   -1.59792360877868
H         1.81024751208854   -0.34047228458002    0.08282233527446
H         3.19200754316809   -0.12800521039143   -0.99334106878105
H         2.40000209617059    4.23129333997408    1.71980222469965
H         4.49883516402820    3.72288008232856    3.05527719020199
H         4.37200719860764    5.38422648682011    2.45691934164297
H         5.44297321919965    4.24775413181764    1.65153793780348
H         4.33220318829398    4.29235724161579   -0.65711671800783
H         2.57779062761661    4.47737050144183   -0.71960361942809
H         3.56411886579443    5.69313199272603    0.07414935912593

