75
CSD_code = KILVUY | q = 0 | S = 0 | Stoichiometry = C26H41Cl2N4PRu | MND = 6
Ru        8.09809456129400    5.98959700709084   14.13894614706887
P         9.54994064092537    6.29613529986857   15.97506805995570
Cl        9.85020238297414    4.78378355133814   12.95798837864454
Cl        6.25741552643170    7.19813972766955   15.09308858556864
C         7.73258669086924    4.17982174166059   15.11557239138541
N         8.84685333543613    3.72277022995828   15.74117374322196
C         8.68488358083176    2.43855070483401   16.17158692811331
H         9.46096815561832    1.89240599264668   16.66818136209919
C         7.43097621575920    2.07996685415650   15.83726468008309
H         6.93012252335482    1.15160456539256   16.00717283475483
N         6.84128334303076    3.15076118234108   15.20184910266805
C         5.38255230204825    3.09331742125038   15.00999181175452
C         4.75105895966345    3.14919000073223   16.40905414650523
H         5.16723992193634    2.38969853924108   17.06718519202948
H         3.67821345430679    2.99244906069298   16.33700695341903
H         4.92930966000538    4.12694681176879   16.85042287825889
C         5.02196602654607    1.77963777110020   14.30127604886563
H         5.10851077131022    0.91541669691096   14.95433580915388
H         5.66460894574561    1.63192682885571   13.43584877028677
H         3.99230975181728    1.83128618052039   13.95734128927572
C         4.81599641552066    4.24312423447943   14.18890092929163
H         3.73756823190361    4.27236559884085   14.32484881616499
H         5.01655244299289    4.10330816320591   13.13149270576647
H         5.21823477265704    5.19642931367200   14.51815919081798
C        10.02009074066461    4.49655775953020   16.04307518888120
H        10.77673378960634    4.33623060902201   15.26589404798338
H        10.41574324135967    4.18022288391620   17.01359979531684
C        11.29090178208258    7.08398493406256   15.89516779661567
C        12.36146859966188    6.28863319161383   16.64784530816615
H        13.28527705496758    6.86703593329585   16.64864033903802
H        12.56896245384084    5.34353262647249   16.15352812668475
H        12.09346050518091    6.09358251069575   17.67995768152557
C        11.69536922655318    7.13055141561152   14.41864726388758
H        11.10250981831739    7.86379833265756   13.87667602516811
H        11.56954163472491    6.16603704840474   13.93268586812063
H        12.74270841180703    7.41900185430994   14.33400759506527
C        11.26888876146901    8.52681479269050   16.40420675331898
H        11.17199199358082    8.57913638106266   17.48498052254360
H        10.45639836077821    9.08559461566978   15.94349628692441
H        12.20489909589061    9.01562232976768   16.13273613903447
C         8.84062878113202    6.57533717831525   17.72644012249945
C         9.81954231793437    6.38074680734905   18.88404899895377
H         9.26675723659022    6.46276379825204   19.82017140710573
H        10.59610377116517    7.13952724765865   18.89811164379833
H        10.28222999262347    5.39574015801384   18.86562918476792
C         8.23699341133760    7.98041873725444   17.78847360893201
H         7.48450648650797    8.09085782177537   17.01046734055009
H         8.98431698465270    8.75956853868219   17.67964455513334
H         7.74315522692712    8.12234202725551   18.74936270607957
C         7.68834926977933    5.58091371500083   17.90456932881567
H         8.04141450616889    4.55563795817362   17.99853331037905
H         6.99792311981410    5.65448089437697   17.06548527318566
H         7.13763381207080    5.82728555902717   18.81191709215911
N         8.63507463405786    7.68484171170207   13.18756053391741
C         9.03146635942647    7.68471164248964   11.90974634988699
H         9.10754808125859    6.72245285404940   11.41853084083327
C         9.37868576348077    8.83346566187979   11.22415496113339
H         9.69905262348357    8.76221068698412   10.19644574753111
C         9.30955567383021   10.05758949977693   11.87052549980986
H         9.56958969908896   10.97338405198860   11.36240030536104
C         8.89967548020976   10.06328849119849   13.19613280597237
H         8.82862914769108   10.98449247204141   13.75343912988556
C         8.58081014553634    8.86810231369962   13.80965445020111
H         8.24709469576440    8.85266868900132   14.83941243012777
N         6.98823890055163    5.55979232646660   12.53246566217051
C         6.24306396112202    6.50615364535153   11.94667845480960
H         6.11089061564624    7.43342451325713   12.49300057923795
C         5.62478223713232    6.33507936441235   10.72344421273758
H         5.03656525367350    7.13842924863122   10.30830804328449
C         5.77568553490817    5.13363389801284   10.04731666424920
H         5.31942166376222    4.97357819866532    9.08274562377137
C         6.52058014151402    4.13909773033965   10.66318299214584
H         6.65839131239276    3.17620054475845   10.19627313047014
C         7.09094422921503    4.38508549053037   11.89747726920400
H         7.66320484607842    3.61282582662486   12.39324824747375

