101
CSD_code = KILWUA | q = 0 | S = 0 | Stoichiometry = C48H47ClO2P2Ru | MND = 8
Ru        9.60286381538269    6.64043525346986   11.01986831193292
P         9.97958815208434    6.15642496769301   13.21175588201282
Cl        8.12916505175070    8.34100039827798   11.86680036839364
P        11.42327352456770    7.97710361863096   11.00547769214010
O        11.97066112724366    8.36378206885678   12.48611083680722
O         9.97031696030476    7.24647114253345   14.40515801574726
C        11.07886359028036    9.13363711922629   13.29562682745001
H        10.10810131405889    9.25494201907845   12.79464582800915
C        13.56550842810223   11.85800396895601   14.13141387010484
H        14.60913843542946   11.94539420984693   14.39701037244104
C        13.03529073866218    7.46413276443960   10.33240479588677
C        11.47583960629738    5.18165890822846   13.61613724089583
C         8.65376530795377    5.16382128208614   13.96894417600994
C        10.82315885715739    8.36582618882134   14.60248612158159
H        11.79077732130240    8.01470935978866   14.99049574290355
C        12.78046261321209   12.99286471831568   14.02165074249430
H        13.21032878470751   13.96734548023298   14.20175381338238
C        12.28166739699887    4.70038056647270   12.59665938664866
H        12.01414049279720    4.93089965821299   11.57296889951327
C        11.81647062207438    4.93516486975824   14.94182308065745
H        11.18337675925332    5.31717307617999   15.73138979137504
C         8.79158199471791    3.81926857371155   14.28779642374545
H         9.73571751473722    3.31748611476378   14.12798040692251
C        11.67607016635856   10.48922055819961   13.55689170517246
C        13.01521205836739   10.60999957952921   13.90153253098391
H        13.62540305867876    9.72165222789347   13.97347025508571
C        13.25626577238940    7.56199400418083    8.96324003689313
H        12.49088711230632    7.99755642257986    8.33616565844608
C         7.43428107267756    5.80022868627922   14.17688525087243
H         7.33214399909868    6.84083248999464   13.90421822945289
C        14.02560066125173    6.93455042143104   11.14988698302711
H        13.85455412734083    6.86929804715478   12.21340432364999
C        10.85020001354110    9.79494353755840   16.67516092900472
H        11.88085521759110    9.51050933420122   16.83218877738426
C        10.15135895260029    9.28385608580765   15.59140772929280
C        15.22119958611781    6.50685932128269   10.60100933879106
H        15.99084745066811    6.10034152275404   11.24154356891396
C        10.09762539261534   10.03805307492184    9.65106604133406
H         9.26666851781638    9.34497883576807    9.61220736743719
C        12.21742432984742   11.81459789968083    9.84517997627652
H        13.03884791881359   12.51137061852318    9.92879087204941
C         9.92214931950240    6.88220588265727    7.55116627238997
H         9.87332703538725    7.96931033205579    7.61334092335135
H         9.29893436206001    6.56434252494464    6.71159078175147
H        10.94854149916365    6.59300997776150    7.33925212596057
C         9.28600551207716    3.18318685756327   11.02230261944947
H         9.16659757110861    2.39992621723018   10.26976664021691
H         8.53034839337986    3.03605539252419   11.79039460491911
H        10.26752394356790    3.06584759293026   11.48040802798608
C        12.34891244514232   10.53237046869213   10.34119635533650
H        13.26857610728147   10.21427567627547   10.81323226807639
C        10.07627312982561    5.09767657509358    9.45842617255074
C         9.13326335272165    4.51990245479290   10.36303541020578
C         9.97255776470626   11.32082662878465    9.14623754266226
H         9.04615976521009   11.63157461733767    8.68542670524069
C         7.94862964675117    5.31806288978831   10.34125529577805
C         8.82818943433643    9.65538895681537   15.38937864974928
H         8.29014938243199    9.26106032273298   14.54089266383706
C        10.89461460411935   11.63004547926630   13.43893239980883
H         9.85645356858372   11.53508465744546   13.15848264438234
C         9.43391173661976    6.21737896021657    8.80700266940687
C         8.12869572747275    6.33731063334787    9.34172598770767
C        11.32473348612588    4.43017986909057    8.95819360862557
H        12.15157358553178    5.13485247503504    8.86241062319125
H        11.13403191452215    3.99788091410085    7.97273798292123
H        11.63175441439356    3.62602668772584    9.62337166684813
C        12.95162654351266    4.20297125931472   15.23675424481656
H        13.21797051022767    4.01134691905528   16.26642667613151
C        11.28579218435116    9.64050824284748   10.24530879049182
C        11.44525680946519   12.87647104615605   13.67416360998047
H        10.83161556672012   13.76007199756897   13.58081270658696
C        13.74735232872136    3.71054761917198   14.21275416666841
H        14.63140081992328    3.13538800083319   14.44736696077378
C         8.21336629118781   10.52887602272842   16.26751887274933
H         7.18469752498705   10.81501252609604   16.10625539063046
C         7.71964881392382    3.12231290818037   14.81947406820959
H         7.83057910833796    2.07601916726187   15.06763497301579
C         6.61981872904003    4.98346537850551   10.94958892936600
H         6.72545744701009    4.30762991244424   11.79590040607169
H         5.98045381152644    4.50617475656115   10.20234777112330
H         6.11975494126489    5.88707313492829   11.29606671038557
C         7.04318546303840    7.24332621204234    8.84893283660137
H         7.41371446842038    7.90965504981526    8.07224213992832
H         6.63880773907772    7.84844636448420    9.66187030054172
H         6.22745449572893    6.64478178710108    8.43859389889101
C        15.43427565443415    6.59840197520262    9.23512714235873
H        16.36772457933094    6.26132184710992    8.80857325796317
C         6.50951266477670    3.76089964763801   15.03386542100680
H         5.67642711802388    3.21205169854670   15.44891269142678
C         6.36871563069752    5.10201454686086   14.71324243498476
H         5.42412535055118    5.60020077360468   14.87632543376138
C        14.45134082816018    7.13177317888985    8.41654384684991
H        14.61927696610723    7.21439312759830    7.35213026029841
C        13.41323076677247    3.95987524702278   12.89193301771330
H        14.03795688641030    3.58572695052390   12.09325748304744
C        11.03053816680059   12.20824019484915    9.24551347653846
H        10.93059518368295   13.21244829473391    8.85969052289131
C        10.23393800288135   10.67475194586966   17.54746920445856
H        10.78501310123054   11.07233641299924   18.38715465576747
C         8.91486748290850   11.04212444063642   17.34567713423494
H         8.43489650158530   11.72790937329679   18.02850172024982

