87
CSD_code = KILWAF | q = 0 | S = 0 | Stoichiometry = C34H46Cl2N2P2Ru | MND = 5
Ru        2.73389330958284   13.83196142626628    5.50234746777323
Cl        1.49508928680887   15.11292864292687    7.06216083016586
Cl        4.08326659582246   15.74141461383893    5.33157410718687
P         3.84116034772225   12.60570354545365    7.04980552903718
P         0.91459694809781   12.49696406317853    4.94141957643776
C         3.88952223301513   12.75307337897182    4.20251918877004
N         4.39550886010145   11.58148412338516    4.66582556602036
C         5.14787503815387   10.96323585034479    3.70849940950985
H         5.63309719488089   10.02241339035694    3.87054672872502
C         5.12139206276853   11.76400281284507    2.62354503242154
H         5.59881566829664   11.63098320379845    1.67728176928090
N         4.34264840572443   12.85357818824198    2.92850520804453
C         4.22052248926464   13.99013408370300    2.00856609176281
C         5.40945660406320   14.92260866176736    2.26190815211703
H         5.32939959113291   15.35925042955390    3.25562310364401
H         5.41878900838090   15.72363875608688    1.52794167016205
H         6.34680089078386   14.37365389368280    2.19296095228316
C         2.90836353117363   14.73278117808652    2.23994301322847
H         2.05780874682109   14.14811590882688    1.89493987399402
H         2.91992420379219   15.67450104741979    1.69767958044981
H         2.78029247316477   14.96371125614187    3.30189481947430
C         4.24068868256811   13.49146190774982    0.55776011896665
H         5.24072887234884   13.20792653106061    0.23942779751619
H         3.90354338410870   14.29354673349067   -0.09389325858318
H         3.57111790283781   12.64325440900293    0.42882484034060
C         4.21562362289142   11.10263058394240    6.00605677511834
H         5.10673166692430   10.55756698508542    6.32909045323788
H         3.34911984447338   10.43136667241555    6.04746532051310
C         2.98853575234649   11.84510028781191    8.56339805610808
C         3.53494709630019   10.48057540150949    8.98441259042412
H         3.00125532662482   10.15859553656170    9.87827685547687
H         4.59224919947320   10.50612853677930    9.22132700679801
H         3.36972775584649    9.73191047134329    8.21300224964748
C         3.03872709425954   12.84527841894068    9.71739782094209
H         2.78389741706785   13.83792452282448    9.34815260928907
H         4.01446026237389   12.87411271239337   10.19386474198467
H         2.30549129500911   12.56853363273890   10.47387224210756
C         1.52400606711531   11.68900378595451    8.16399017801360
H         0.95389632781274   11.23445962087135    8.97270302793936
H         1.42004259535256   11.06373198498586    7.27788733594694
H         1.10328677688262   12.66894297351612    7.95162260867106
C         5.58339698585798   13.20068798604359    7.53917627427401
C         6.37141584390221   13.37848406677534    6.23730886897142
H         7.32410234012251   13.85841851141628    6.45678495012139
H         5.82616019220935   14.02373061932943    5.55089917194744
H         6.58248087039307   12.42658469412509    5.75327816608033
C         6.36089087817183   12.24346066778943    8.44228566274303
H         6.43799767539375   11.24712175360469    8.01044094277551
H         5.92298390562802   12.17158269524463    9.43327888285207
H         7.37266018645429   12.63109266212219    8.56000387966395
C         5.44756649585511   14.56546263377563    8.21821901939449
H         6.40165079156278   15.08915586989700    8.19154073567504
H         5.13951634507730   14.47828506603733    9.25518269688360
H         4.71804166970618   15.17714708682355    7.69048905701946
C         1.33579642666866   10.96324484332536    4.03873569752527
C         1.38904940464688    9.73538811283754    4.69549528952302
H         1.04158771477159    9.65692483602148    5.71764760422418
C         1.85889910030302    8.60694739662147    4.04731827741175
H         1.88431212207135    7.66045963692091    4.56842693939759
C         2.29746176393563    8.68893234848403    2.73639162840779
H         2.66910810067332    7.80926660090101    2.23231228218483
C         2.25336402158266    9.90474773878171    2.07456289970881
H         2.59045430174901    9.97304023350461    1.04999118344995
C         1.77912714390004   11.03078145675025    2.72083618050058
H         1.74419856550336   11.97599153571781    2.19904652221557
C        -0.66108068512855   12.06387798215231    5.78348083905228
C        -1.16622498072171   12.99452534726708    6.68780205032419
H        -0.58284397059228   13.87328866463227    6.92970045415714
C        -2.40328954253978   12.79678996261482    7.27200653245159
H        -2.78433200938944   13.52211717714974    7.97544339354593
C        -3.15278320483687   11.67697862369042    6.95190032536483
H        -4.11940220410153   11.52013297337242    7.40807965141099
C        -2.66465602926416   10.76271034703116    6.03396518784169
H        -3.25225804787830    9.89509434522094    5.76860226451031
C        -1.42838645701075   10.95539603982657    5.44324512014712
H        -1.07257485897714   10.23903861591103    4.71663953897066
C         0.04271285654030   13.49525567288409    3.67078863370266
C         0.08757873576792   14.88163204046799    3.79250449170196
H         0.67213555090028   15.33988029009251    4.58944110006434
C        -0.61932568282865   15.68395856627705    2.91475955973941
H        -0.57712055943254   16.75830814865049    3.01579727460067
C        -1.38088853245173   15.10795839729764    1.91212131755075
H        -1.93115471591351   15.73185008774755    1.22316667612970
C        -1.44744386309589   13.72787375993740    1.79973081644112
H        -2.05322199553743   13.27703330973323    1.02657889148695
C        -0.74941501352608   12.92204678725929    2.67968631923601
H        -0.81794806830664   11.84602364412221    2.59687970766104

