55
CSD_code = KILXIM | q = 0 | S = 0 | Stoichiometry = C16H33ClMoN2P2 | MND = 9
Mo       14.64758299832903   10.38522362784393    1.66012247984665
P        12.83570768653218    9.15138971758739    2.61754999334326
P        15.75989890607310    9.03382248181408    0.03594924980551
Cl       12.98988740420264    9.80478260568419   -0.19596933886285
N        15.52416539197897    9.18115515060048    2.74227411443971
N        16.09491409004548    8.50858938546269    3.44679875422880
C        15.84825220365078   12.32905707027210    1.04581233438648
C        16.07950848411652   11.99301725647384    2.41074784538558
C        14.83753511134375   12.09118612280546    3.11665937811329
C        13.83116841779978   12.45429199101252    2.16495631479243
C        14.46542735654775   12.59932806718648    0.89608282137450
C        16.92517313040637   12.66388246597517    0.05845136339945
C        17.41615325439546   11.85020269238411    3.07255243294331
C        14.73688651780525   12.15471662369348    4.61099572898402
C        12.46213875209140   12.98420395791099    2.46653923890863
C        13.78599180739871   13.12744187415559   -0.32842516511601
C        12.65517768159867    7.39162307324381    2.15619006816174
C        12.91464670812345    8.97506532684271    4.43667416148275
C        11.10338143281990    9.71079546016695    2.44431945184483
C        15.87107380934947    9.63679877964392   -1.68620283563061
C        17.52902290546010    8.73711838178540    0.39770307449217
C        15.23103902653084    7.30903848132945   -0.26374581642908
H        17.36983168045823   13.62427708018942    0.33229592168194
H        17.72103675642946   11.92019505245802    0.05148931904637
H        16.52694075296888   12.75657381014453   -0.94985684241185
H        18.19293160416688   11.61655724668266    2.34696737644620
H        17.68599599499050   12.78233243607203    3.57471849138851
H        17.39739705477271   11.05624970399685    3.81977802340336
H        15.20132708715222   13.07545949607788    4.97277013834311
H        13.69915749629393   12.15123501316261    4.93862985184980
H        15.25061383738639   11.31291000155568    5.07555912796799
H        11.74365169734525   12.67179894650625    1.70992311748458
H        12.11244643361955   12.65024257322289    3.44174581084793
H        12.48887823937112   14.07715450900388    2.47394739203677
H        13.64097130372824   14.20663174407453   -0.23513904651123
H        12.80962300990423   12.66256942049084   -0.46306436537395
H        14.37362451049956   12.93463520300592   -1.22419252371502
H        11.83810843095475    6.93989993079297    2.72024325014999
H        12.44950510481535    7.32463117810382    1.08914788170326
H        13.58967335163723    6.87868685424561    2.38592984188279
H        12.84708242556114    9.95813407824552    4.89728707394277
H        12.09628314764640    8.35124634396078    4.79579708326560
H        13.86518518816540    8.52072993575234    4.71052980549514
H        10.86733719281585    9.83873488549332    1.39051896843664
H        10.97473691361438   10.65776066540782    2.96383479114745
H        10.43868677897670    8.96587466435655    2.88284365805901
H        14.86532072479632    9.77883483947321   -2.07661512804117
H        16.40509897237577    8.90879170016519   -2.29769094160548
H        16.40343394331482   10.58512232122240   -1.70628080899444
H        17.60811369376411    8.21158661832540    1.34818185626070
H        17.99118955484096    8.14119975969582   -0.38912349744864
H        18.04980402590452    9.68875153962723    0.48319029704367
H        14.20388134276412    7.30955678727475   -0.62447093965544
H        15.29278616830526    6.75775341177447    0.67476300124049
H        15.88361250405841    6.84735165555434   -1.00609363528298

