26
CSD_code = KILYOV | q = 1 | S = 0 | Stoichiometry = C10H9NO5Re(1+) | MND = 8
Re        2.43435005937997    3.28598583362400   -0.43670305222264
C         4.30776663182768    4.41517645445595    0.60651874501136
C         3.17471373201700    4.62645720380685    1.44727826160930
H         3.09979658231106    4.35231425287712    2.48964452962607
C         2.21982007898615    5.35924245838003    0.71127169136736
H         1.30858321564976    5.77638495619432    1.10838586372671
C         2.76593801552080    5.63390177606407   -0.57213871683863
H         2.32429077542751    6.27673294907229   -1.31664317293983
C         4.04975312128599    5.06004740518633   -0.64220206789083
H         4.76258078445942    5.18435722229746   -1.44250860331660
C         5.61162677319734    3.82664940347926    1.04034124263576
H         6.24948972767622    3.63013400870873    0.17359137839250
C         5.41585485501623    2.50393241358718    1.81681333046449
C         3.33705530963449    2.02734484038301   -1.61413400043611
C         1.78160252677353    1.81973012488721    0.65803019228219
C         0.82690573360365    3.18854652314583   -1.54080189226576
O         5.84172396790657    2.42238542175910    2.94303232803608
O         4.77322243972012    1.59717352953013    1.14089429353489
H         4.63857433368441    0.76408567069623    1.62800446659423
O         3.95642523659777    1.35008850286887   -2.29109824172613
O         1.45167022262019    1.00764225968932    1.38987049836304
O        -0.11078897379831    3.23644082302396   -2.17993845453490
N         6.33663598286005    4.71334799692484    2.02652323964422
H         6.44840709698861    4.06955275184658    2.86692502350192
H         5.76749956271177    5.52648062954848    2.29119985753858
H         7.25630220794454    5.03146458796189    1.70874325984225

