26
CSD_code = KILYIP | q = 1 | S = 0 | Stoichiometry = C10H9MnNO5(1+) | MND = 8
Mn        8.74170870588626    0.14974659406080    5.30408729476141
C         9.51283576214685    1.33976093018224    4.21016343992989
C         8.11761343860903    1.44919587783659    6.35889114904570
C         7.22593552165225    0.12925611301674    4.33185202567202
C        10.51016073090743   -0.70906282886410    6.24489777118601
C        10.32897031192760   -1.32704662887431    4.97125824175680
H        11.07375204677489   -1.38783739025336    4.18988715580736
C         9.08669890303829   -1.98521385762635    4.98465061696333
H         8.71326965468138   -2.63480960648227    4.20698985062761
C         8.49318139445603   -1.79722872265667    6.25964049249365
H         7.60172692005389   -2.29032800649585    6.61798686163282
C         9.37412509022533   -1.02887679675950    7.04581623573307
H         9.26238020235883   -0.82076445163185    8.10249279452055
C        11.78281473275000   -0.09523802592577    6.74990010039565
H        12.43725226333676    0.16825916631777    5.91404501124637
C        11.51732252697242    1.17768923173669    7.59074847772265
N        12.49960993850821   -1.00875677581603    7.71036982160909
H        11.96770447425718   -1.86851712712203    7.89028131540741
H        12.52976904908313   -0.41472252126352    8.59736320735752
H        13.45267748771603   -1.25216721556973    7.42613856302082
O        10.06082587949214    2.07363267128940    3.52696489984584
O         7.76645065482303    2.26513712181024    7.08107013768648
O         6.27020843314179    0.04248465669419    3.72018146459664
O        10.90959062019564    2.11644247707493    6.93276612784012
H        10.72494343522489    2.91494172321152    7.46140845231267
O        11.87417182178040    1.18892339210996    8.74394849082727

