47
CSD_code = KILZAJ | q = 1 | S = 0 | Stoichiometry = C18H27ClIr(1+) | MND = 10
Ir        2.42865443780391    6.08211948833943    3.93529822746410
Cl        1.86087821031065    5.09275763183797    6.03014370108267
C         2.35555800064156    7.92862750183997    5.24149240961402
C         1.21718592849398    7.88926702660428    4.35989547794954
C         1.69436448778192    8.10529365013017    3.01644092580767
C         3.10930692354300    8.10380025806840    3.04735983620115
C         3.52821632925188    7.95387126501410    4.42728246108313
C         1.20251221226082    4.20416165361129    3.27592979570648
H         0.29109270106941    4.23980494535082    3.86433416936964
C         1.30872967986702    5.08571197342445    2.21890866944983
H         0.45070969762756    5.71852768360349    2.01307772179034
C         2.23952965652094    4.92913021534161    1.04453178853903
H         2.25921647855010    5.86929380289383    0.49143775539520
H         1.81341530305962    4.17975165340727    0.37048553015682
C         3.67604171625781    4.53565255398571    1.42624321914735
H         3.77829959395818    3.45144256424046    1.45490129979272
H         4.35248182531098    4.90286623029018    0.65402015096802
C         4.11357988945149    5.09344154493979    2.76096909851869
H         4.89336778789066    5.84496815611083    2.70312090281454
C         3.97928878509241    4.41295908060761    3.95770189689139
H         4.66256013858572    4.66312083457505    4.76535083318372
C         3.33624661182387    3.05954729894980    4.10523263919115
H         3.18848930617809    2.87213341345772    5.16799674987783
H         4.03699046144931    2.30514702672816    3.73604077584782
C         1.98110952337755    2.91501487565029    3.38309188630139
H         2.12356004725647    2.51634350721326    2.37819535793671
H         1.37979504163937    2.19649999001927    3.93862159935037
C         2.30805494076742    8.09527031404683    6.71423129293390
H         1.43750520881191    7.60828288422959    7.14455008261303
H         2.24662531353962    9.16247056895554    6.93715320253239
H         3.19962977435434    7.69900154143512    7.19231561996487
C        -0.19994849158264    7.96302377273084    4.81212169674692
H        -0.89063010342676    7.68016914803981    4.02216822339495
H        -0.43186360711177    8.98366437152243    5.11979702611763
H        -0.36361079630111    7.31108083095166    5.66735924098331
C         0.85893049652702    8.45532663347841    1.83787736076044
H         1.28148205427299    8.07428974649845    0.91089226157865
H         0.81988634745019    9.54323925899811    1.75464734630069
H        -0.16192040320168    8.09723104434350    1.94026528313660
C         3.98974232729248    8.46646044713286    1.90314650431485
H         5.02302433685455    8.18063224459170    2.07793333646679
H         3.96348351163753    9.54915571177487    1.76809055835323
H         3.65085145554875    8.01281188600698    0.97463067060625
C         4.91858760630944    8.12230054450507    4.93661293521015
H         5.06838932021147    7.56617910161994    5.85899979940173
H         5.09514732093425    9.17757318817098    5.15167095056885
H         5.66065261205774    7.80008093473227    4.21063172858342

