30
CSD_code = KIMDUI | q = 0 | S = 0 | Stoichiometry = C11H14O3PRe | MND = 8
Re        1.32266901794383    7.42683921376279    7.03235875316529
P         1.98812041140863    5.77836822475175    8.64683880450578
O         4.67860299016137    8.94340674801838    8.98078434942104
O        -1.34778527558203    6.01529700013542    6.43800794276731
O         2.68337912166515    5.94396702792617    4.70336306265945
C        -0.32372289096129    6.50803451931465    6.64306502228203
C         2.14471233742608    6.46545913147689    5.58033190704344
C         4.13937366481333    9.19022276982192    7.91647646046013
H         4.74804334126692    9.45186460206494    7.02482244841964
C         2.72204963544358    9.20390098573053    7.67983046020859
C         0.68549843836612    9.67366892857141    6.72316860004445
H        -0.06084396678215   10.05658777855221    6.04269973917308
C         0.46778624994831    9.36429542949376    8.10091558938315
H        -0.47383393692734    9.46406717624908    8.62061189984030
C         2.06764182804906    9.58265130640758    6.46683963543743
H         2.56434177687376    9.86831512824844    5.55072458041693
C         1.70172823271295    9.06644311858872    8.68067220004021
H         1.89890618059930    8.91689465916805    9.73262386693888
C         1.01656326991364    5.79149564075799   10.19578512070609
H         1.15029253171312    6.73649418029968   10.71652873730546
H        -0.03545674996731    5.66806612806007    9.94496352363267
H         1.34068634018030    4.97603191024584   10.84092751181043
C         1.84393594202250    4.03797227905628    8.11353907102564
H         2.45636888889282    3.89560592056734    7.22566093262578
H         2.16982440549747    3.36653696347033    8.90615817802745
H         0.80674178923476    3.83945869868922    7.85183103810725
C         3.71777011210003    5.89178338622211    9.20622670883346
H         3.94742109825829    6.89673692769099    9.55884422450110
H         3.89499448798417    5.17482490556941   10.00698430457788
H         4.36629072774442    5.66910931108790    8.36031532664000

