47
CSD_code = KIMGAQ | q = 0 | S = 0 | Stoichiometry = C20H19Cl2F3O2Ru | MND = 9
Ru        7.89608409191956    3.68916525654082    2.24119197315523
Cl        7.71647423390635    5.90141207896972    2.92241527472412
Cl       14.63577861541175    4.29226145435631    7.61979186740690
O         9.57119822697906    3.71001938890617    3.42169919866392
O         8.98549553521791    4.46657130100187    0.67859584217514
C         7.44803921429064    1.58292110319350    1.37619359828933
C        10.14190498174894    4.94125281884338    0.83445567794920
F        11.77986218129587    4.69794895923978   -0.87679805341018
F        11.32232607366879    6.70872650729867   -0.27591552172020
F         9.91164061606026    5.58968367444480   -1.45651225149499
C         7.43684512875207    1.49259889397138    2.77691474537820
H         8.03952210726477    0.74100086135452    3.27355542434864
C        10.63019012619702    4.34547159002121    3.17970756596316
C        10.77889226306896    5.49776858599592   -0.45192898511852
C        10.95392578271909    4.97502008862915    1.95482248836874
H        11.91991952746415    5.44033114560750    1.85610633367380
C        11.64729916702025    4.35379021773849    4.25938281855478
C        11.69393119101617    3.27894587094525    5.14697159513288
H        11.00189884875221    2.46174336349735    5.01234504955437
C         5.73693207525261    3.35070423212087    1.53327336344856
H         5.03991616488438    4.02304456319620    1.04544854278596
C         6.58766117218306    2.54182132681273    0.76904246194514
H         6.54293931254317    2.59596301274947   -0.31442763894090
C         4.86068164622251    4.15603759129899    3.76591286904111
H         3.87634729260590    4.23768266946702    3.30897131120637
H         5.30117078440035    5.15614688485681    3.80352938283843
H         4.76082151904405    3.78849627045744    4.78426470457835
C         8.32258783280605    0.68593995552571    0.53326452029592
H         8.18808478256130    0.96975081381867   -0.51628379502182
C        13.43625052482840    5.40726825005741    5.47918799556254
H        14.10789946667926    6.23827036493810    5.62661940227062
C        12.61187207543227    3.25067006099987    6.17693081889560
H        12.65289876728524    2.41405697666194    6.85659643656689
C        12.52220397240253    5.42264312904184    4.44327625282900
H        12.46890942707952    6.28539090126111    3.79887421937878
C         6.60648136599068    2.32831677193323    3.56368552096558
H         6.57872831478010    2.19508531515469    4.63983712756037
C         5.75208839916711    3.27203662407961    2.95474157782612
C         7.91270985130267   -0.78076572109038    0.69262979231156
H         8.05619242247338   -1.11651643208944    1.71692731906146
H         8.51750787071119   -1.40557299228416    0.04051187216317
H         6.86626997454584   -0.91709478470877    0.42819120337625
C        13.48486308074683    4.31729161688559    6.33618275962585
C         9.79690336294104    0.88958229112997    0.89394142655723
H        10.05152337702830    1.94894622801247    0.84489763893448
H        10.43348120686627    0.35078153893767    0.19667179885481
H        10.00764604448860    0.53048938019309    1.89880647348419

