27
CSD_code = KIMGOC | q = 0 | S = 0 | Stoichiometry = C12H10AuCl3Se | MND = 4
Au        3.47813278424122    1.67223909832511    8.97900752384930
Se        1.06368267338492    2.18166274662999    9.04718581455105
Cl        2.61729571447285    0.22824984904069   10.53903451374432
Cl        3.95816824093490    3.33935382144477    7.51279068132779
Cl        5.65986452778233    1.01931021642948    9.14819566793527
C         0.19262028202815    4.74688942942477    7.95192056422363
C        -0.04660921949085    5.61734030923626    6.90278353329837
C         0.22089707523029    5.23343889825837    5.59899304543862
C         0.71743506685376    3.96725679437477    5.33130068947046
C         0.95889637496811    3.08790888385492    6.36909934541548
C         0.71012643793018    3.49086747695599    7.67490789165141
C         2.01262582295637    4.40638953438078   10.61012397770932
C         2.12728887856346    5.14848404055815   11.77140675722281
C         1.43002261660346    4.77495333206916   12.91131152881711
C         0.61248414255218    3.65674467461536   12.89924551753159
C         0.48279334512643    2.90423845112364   11.74400379753943
C         1.18257517901398    3.29159303790304   10.61021794820601
H        -0.01952780924058    5.04212290183075    8.97015848522052
H        -0.44194329049975    6.60078689477516    7.10841256370226
H         0.04064866859848    5.92280741934937    4.78821521455783
H         0.92310327941966    3.66692745428270    4.31536005723792
H         1.35496881453647    2.09884823095451    6.17656626055369
H         2.56284479909611    4.67991123396757    9.71860117813185
H         2.77157105335558    6.01444970169919   11.78779747103132
H         1.53207113702910    5.35624231775247   13.81512908249810
H         0.07856222803410    3.36430904474892   13.79045423386330
H        -0.13539882348109    2.01757420601311   11.71557665527190

