76
CSD_code = KIMKOJ | q = 0 | S = 0 | Stoichiometry = C37H28N2O8Zn | MND = 6
Zn       -0.14864736660979   -4.18327623131560    9.05602513337267
O        -0.70962735276083   -4.12450794140294    3.63408327790231
O        -0.51220175970862   -1.97637970212994    9.66628818547700
O         0.56281636999820   -5.57220855205163    7.96715127529767
O        -1.36830946508240   -3.39464580035160    1.65479637120184
O         1.90787309166002   -3.04879211604424    8.65887091515794
O        -0.05221291753888   -5.00528710005167   14.46581663460835
O        -1.74055759659827   -4.56665680083675   10.05763553138968
N        -1.08771477994321   -3.38109362935785    7.52100793238098
C        -0.11361588525539   -4.77606006912315    5.81780953300928
N         0.96175334281252   -4.60442706288713   10.64335513992714
C        -1.98901324599721   -2.38704578723047    7.88385030335085
C        -3.18075317963312   -2.12785433673786    7.21299251323614
H        -3.44837033333285   -2.72159805231983    6.35265254241462
C        -0.81650276055804   -4.78633975334593   12.24946469635239
C        -0.01357979041708   -4.97451900442851    4.41570299941297
C        -2.41924868478072   -4.94322453219287   14.11279836699925
C         0.54234969149234   -4.80723334502624   11.84948493283770
H         1.26857656819598   -4.98728965517566   12.64501628017778
C        -0.94038809379810   -3.72256235219459    6.28243058797331
H        -1.46657934441622   -3.16076663556842    5.50861663318504
C         0.60195507570339   -5.65003633581310    6.70086760449845
C         2.78559010269639   -3.92794190592078    9.27436501110080
C        -1.68377579124462   -1.64649780782782    9.04015017894039
C        -4.03630338080412   -1.13675615922572    7.65996913317094
H        -4.95684400655145   -0.94618239810073    7.13022692378941
C         2.30577927958547   -4.73150981892860   10.31844988685482
O         0.82238349858498   -5.20430668642040   16.48543789101613
C         4.48375003922229   -5.74495187259309   10.49170349027894
H         5.14285186492580   -6.46058113117261   10.95915301360738
C        -1.89642949023636   -4.67285190882206   11.31073155324292
C        -2.54510108513319   -0.65571767849052    9.48006984404580
H        -2.31732776412699   -0.09217925038201   10.37192067009146
C        -1.10845536996692   -4.91632873188327   13.63230680234994
C         4.95104631723113   -4.94160558107134    9.46512974353464
H         5.97289356319744   -5.02757613400324    9.12928201020175
C        -0.70976122264887   -4.20822155867562    2.25777286226984
C         3.17168117741144   -5.64742662044509   10.91468328667240
H         2.80331182792239   -6.30310027730947   11.68886098535247
C         0.08107396555171   -5.26256477491552    1.68094519399517
H         0.06882960416736   -5.31956250055924    0.60421391831573
C        -3.22392360114709   -4.69358962804053   11.84477226287995
H        -4.03050958476110   -4.60278051595921   11.13345857223573
C         2.15786613595156   -1.68113492774449    8.94643601698780
H         1.62452412500876   -1.11589675941199    8.17792434513182
H         3.23226576513799   -1.48023007480522    8.85458672712376
C         4.10050469550207   -4.03456162333238    8.85497122055729
H         4.44915303170694   -3.41799147362659    8.03951634167517
C        -2.62179375400213   -5.09137934536389   15.52645164734550
C         0.17971672808832   -0.95834780082196   10.36274873510550
H        -0.17752360480335   -0.88982634617702   11.39968230442598
H         0.00377884694865    0.00420366228038    9.86397108837230
C        -3.47075887563699   -4.82552605257143   13.17275041102042
H        -4.48947219185446   -4.84051000539282   13.52774183594872
C        -3.71820542447067   -0.39966050703210    8.78572312169648
H        -4.38599026722264    0.37100736675745    9.13879017967465
C         1.39759761352722   -6.67441338898022    6.09884179215963
H         1.93940808276657   -7.32166263593861    6.77142811198687
C         0.76421685160857   -5.99599369193015    3.86561743733562
C        -1.53767127675693   -5.18618178979311   16.33565880062586
H        -1.63229154417273   -5.29992599850112   17.40374462726961
C         1.67591334759205   -1.27453753855491   10.34529488142778
H         2.22012939175888   -0.39158385438635   10.68219887888250
H         1.88939968977699   -2.09113765523496   11.03616146578399
C         0.79748062310828   -6.13111944442280    2.43651542698049
C         1.47222201821088   -6.83961198173740    4.75353664775461
H         2.08258760857563   -7.63003126432528    4.34524380250490
C        -4.00700001484107   -5.14288083651240   16.08504091307747
H        -3.97603613846256   -5.26482142604905   17.16419379525544
H        -4.55751620298428   -5.97762118480837   15.65388516524342
H        -4.54500648365267   -4.22527896461230   15.85166061917734
C        -0.19121073975716   -5.14013262944901   15.83167290131275
C         1.60807753035783   -7.21569661580747    1.80361761148962
H         1.51493526233363   -7.17604686869656    0.72185410601780
H         1.26948836153812   -8.19139690899221    2.14877043267710
H         2.65874928181084   -7.10783369770045    2.06884798385292

