66
CSD_code = KIMLOH | q = 0 | S = 0 | Stoichiometry = C30H31Cl2CoNP | MND = 8
Co        5.39959538577554    6.00119570963361   24.27227758601229
Cl        2.66627409582518   -0.51661084346696   24.22177333508732
Cl        0.83042455173202    8.00778194005201   19.13239669472674
P         5.99802253314891    4.53385519684907   25.80230227286386
N         3.04279678246303    6.66075771772276   25.94107042300845
C         6.70213855479570    7.73205305550915   24.39382936264670
C         5.67924930578684    7.96173599760198   23.46997329171756
C         5.79032192532786    6.98253401775434   22.42812829524452
C         6.88488045960230    6.15871532390466   22.70911308622061
C         7.40352829378777    6.57154511731472   23.96152618226539
C         3.65727798989458    6.14730749418757   25.00851746840335
C         3.51221526220458    5.40781159089049   23.82308841524647
C         3.61262595199733    7.47086168120086   26.98856367601303
C         2.81009714794376    8.77409161441078   27.06623057508063
C         3.52861174910896    6.74055192217590   28.30718830372344
C         4.45874785445851    6.99791023922921   29.30601543405351
C         4.38272895796468    6.34274573039695   30.52233847168347
C         3.37556381115252    5.42101595708302   30.75243244780078
C         2.44078634656670    5.16455929408483   29.76396147547234
C         2.51462440175092    5.82317928844798   28.54932873391000
C         2.85608474634328    6.04482287529806   22.66590720480681
C         2.64257277370891    5.34289570784940   21.47687238791736
C         2.02386682362585    5.93898777304766   20.39559563555939
C         1.59939647162309    7.25404032977894   20.48812702834683
C         1.77814721096968    7.96780068456793   21.66306939777896
C         2.39626363891715    7.36399389440550   22.73774446516988
C         3.33642522470736    3.93045243550216   23.92847759491151
C         4.15736768664581    3.04361770856698   23.23722436221460
C         2.29137751928306    3.42222515339369   24.69445468003943
C         2.08010655047254    2.05846333140323   24.78738266397170
C         3.95471654646103    1.67820552128699   23.32082469830238
C         2.91693256421419    1.19264903617204   24.10109364018916
C         7.15069303148831    3.22014149096776   25.23927963873849
C         6.96840294766120    5.27693234073359   27.17424616301711
C         4.85091828567748    3.51463830978634   26.81112990963467
H         4.66846642281187    7.70457476236781   26.77014654618691
H         6.97765594142698    8.36221216350332   25.22435721817185
H         5.01778696293385    8.81325070628889   23.44411694145739
H         5.21849291991906    6.99354803922175   21.51327828678423
H         7.31309004188736    5.41116975605683   22.06151504694785
H         8.31975418118101    6.20356321510440   24.40272122101478
H         5.24297344093742    7.72264473554076   29.13282769133945
H         5.11191212153285    6.55143604856176   31.29170771232619
H         3.31793965679990    4.90736644130581   31.70067067977568
H         1.64960384388828    4.45062441781756   29.94045510702459
H         1.78830952235134    5.62850765350329   27.77440186186892
H         2.96741396759774    4.31734962992000   21.39306042211157
H         1.87151413912250    5.38601448632728   19.48156660277045
H         1.43065834779263    8.98710979424820   21.73239743582860
H         2.52241554869649    7.91742431113249   23.65535824308563
H         4.96481672255196    3.43372992467893   22.63310600291331
H         1.64522640156374    4.10720583175786   25.22146156893674
H         1.27212119470614    1.66632750658510   25.38511238526445
H         4.59251739219472    0.99126514305466   22.78576176862583
H         3.17243997394625    9.38780105921587   27.88708838084318
H         1.75966538546462    8.54692641305621   27.22952773334030
H         2.90891283845409    9.33006275803201   26.13691673034787
H         6.63002939873611    2.57454935104909   24.53547094566283
H         7.49111339060270    2.62965297132951   26.08904773189892
H         8.00588376955888    3.66806366747648   24.73880645451685
H         7.74640926302745    5.92678617468392   26.78230742544010
H         7.42006116594261    4.49245385961415   27.78091442590977
H         6.29417015980188    5.86473398411205   27.79431828956245
H         4.06400363247637    4.14394282296625   27.22183234890727
H         5.40409385408015    3.05360240087005   27.62878135827987
H         4.39916501492150    2.73973533287418   26.19798043107484

