64
CSD_code = KIMLUN | q = 0 | S = 0 | Stoichiometry = C28H33CoNP | MND = 8
Co        0.95598473173894    2.84003289075111    5.58039410331534
P        -0.55926331412165    1.26471627220938    5.81709612723405
N         1.46504686400164    2.29132403201318    3.81417513979728
C         1.89359606875087    4.73497372816733    5.74195264430233
C         0.48929191958549    4.92674004649861    5.75225623853300
C        -0.01271000463665    4.19937040846655    6.83919818334425
C         1.09493160225034    3.64236808281584    7.56321373284667
C         2.26860761253300    4.00752101031464    6.90533384323898
C         2.09191192445886    1.59224759127523    4.67387845656485
C         2.87523069014166    0.51989733003578    4.90620675502188
C         3.38815345189185   -0.40551557803017    3.90406123940018
C         3.22675272048744   -0.45492292143548    2.52744843732311
C         3.85097619492954   -1.46196536850388    1.81289563743968
C         4.62504139201532   -2.42327452232351    2.45215134171762
C         4.77908906115158   -2.40089140495585    3.82650609155469
C         4.16001506487920   -1.39823443018593    4.55536337679125
C         3.32464010842815    0.00871763508057    6.18673083274273
C         4.11620454423900   -1.14379676036049    5.97577539623653
C         4.66614136907322   -1.82667666367240    7.04926181736232
C         4.41779600879607   -1.36758680384744    8.33037364222320
C         3.62368652768028   -0.24475020083624    8.54019359048064
C         3.07435189507012    0.44851125159111    7.47751075795898
C         1.91725940108403    2.92073628747812    2.59550939525395
C         1.08621092693453    4.16142507364494    2.27157690880515
C         1.50045749807796    4.73250158025289    0.91914129479587
C         2.98651602285595    5.08013635741594    0.92340633812575
C         3.82308810777118    3.84824014631292    1.25809320558764
C         3.41015681565032    3.26172007062647    2.60442426168514
C        -0.30123351263406   -0.37515110565916    5.04703373283588
C        -2.20380628124330    1.70150540325659    5.12828266602721
C        -1.00222940892822    0.75869372068530    7.52204073807341
H         2.58923440091306    5.24507623542308    5.09213217303634
H        -0.07404829528417    5.57352264733638    5.09964980549555
H        -1.03371824202874    4.21313528641081    7.19285227979550
H         1.02182108458715    3.16568874130942    8.52838919311494
H         3.27871705005077    3.82553153211550    7.23310432319275
H         2.61687619270131    0.27288409467444    2.01578675735073
H         3.73237336990189   -1.50455014627122    0.73902538573205
H         5.10236510999010   -3.19744641319970    1.86843912851003
H         5.37104438009199   -3.15477008713475    4.32559710956339
H         5.27413721986660   -2.70573945975820    6.88930613528386
H         4.83789768500956   -1.88814916499505    9.17941244741804
H         3.43502194611769    0.08813430153334    9.55200285268729
H         2.45139093101796    1.31496641967999    7.64186837049242
H         1.73213534748352    2.18687487367183    1.79413429791386
H         1.24634238796836    4.91267178802682    3.04443161286531
H         0.02706560844967    3.89570746609871    2.26986040355536
H         0.90928871841674    5.62375884620968    0.69843132155653
H         1.30210445297794    3.99751936200996    0.13513764784647
H         3.17341390916941    5.85866419572039    1.66690789874812
H         3.27943538348911    5.47369656999177   -0.05212041089179
H         4.88226009386141    4.11185639137889    1.28283408200591
H         3.68648059359917    3.09430180217887    0.47892597020586
H         3.98676656214992    2.35938349410566    2.81754353869320
H         3.61013220195785    3.98061596885931    3.40112054638047
H         0.54202461517788   -0.86694076526360    5.52716109789617
H        -1.19711226840760   -0.98531998154293    5.15917143222789
H        -0.07022054376971   -0.24787848532028    3.99186032786699
H        -2.09471247247463    1.87293383740142    4.05912349403634
H        -2.91739221794755    0.89649579870776    5.30017583683510
H        -2.56510447828993    2.61641883226883    5.59255906724417
H        -1.33821761468622    1.62271987428956    8.09101780184119
H        -1.79170037592451    0.00823986473704    7.49817187565567
H        -0.11869873911598    0.34078312036172    8.00100026921534

