78
CSD_code = KIMNOM | q = 0 | S = 0 | Stoichiometry = C34H40O2SiTi | MND = 12
Ti        7.44135947575085    2.61600756488351    7.32852629036971
Si       14.36385872567594    2.59020960149534    6.73886587521430
O         8.89303293984350    2.50726015304254    6.41271726519007
O        12.94704796992261    2.87766272842186    7.49281727930453
C         8.66337733096579    3.72792041560565    8.64035888928414
H         8.71066015230647    4.76922202572225    8.29712802933376
H         8.40622902525595    3.74915967119880    9.70853638123073
C        10.04982571557677    3.10711751108718    8.44185536637178
H        10.18679097760074    2.25818108004258    9.11901687830053
C        10.14861647244970    2.61729746324629    6.96529974775540
H        10.66497619579746    1.64143343837141    6.91134494617518
C        11.03960716193805    3.66561646900236    6.27574907016497
H        10.44238228333643    4.55136690491962    6.05314698870255
H        11.50055041072691    3.29508937922596    5.36252301615370
C        12.07370387138784    3.96611205406264    7.35560957209427
H        12.64841472515121    4.87499918642950    7.14507676640779
C        11.22038922850399    4.11147870644049    8.63593544891628
H        10.82919142349960    5.13311040989297    8.65708919578746
C        12.00099920761666    3.85922545351947    9.88250073088369
H        12.44966742089359    2.87803601814847    9.95069743894494
C        12.15992577389155    4.74061200544769   10.85309590796657
H        11.72353177088180    5.72523279393960   10.80277927868045
H        12.72863135952530    4.51736370929707   11.73979073487068
C         6.25435400067428    1.40353533684335    9.03405116294540
H         5.60777739317500    1.81710993347030    9.79922211294480
C         7.63671124887984    1.13647093976740    9.18692237523449
H         8.20236368920520    1.28210791233136   10.09786201079671
C         8.07149516508894    0.42696760044856    8.05140693363479
H         9.05143376487800   -0.00991520885414    7.90810477941662
C         6.97251836192466    0.28851011088671    7.18022909678244
H         6.96440174106747   -0.28657850960264    6.26136748594581
C         5.84429171204880    0.84505869755537    7.81679745645287
H         4.82404042652466    0.76401240618542    7.46971162387135
C         5.53538219652825    2.99117863473446    5.84623124322041
H         4.94747710999627    2.24256621338605    5.33193885495037
C         6.64809119851659    3.66117801793773    5.30343823853287
H         7.07965420483743    3.49303675313871    4.32454638139632
C         7.03595603426303    4.65948457950921    6.21098794292096
H         7.79509746168825    5.41118267156132    6.03584151177776
C         6.16177035473161    4.59893051685063    7.32912601269895
H         6.11268110794760    5.32460580478653    8.13353130409365
C         5.21723756501641    3.59074699267185    7.07698531556234
H         4.34491845479727    3.38211860763314    7.68199651135093
C        14.79991341154482    0.81872529668632    7.34644561737636
C        15.36127208820123    0.89827438339307    8.76899819024873
H        16.26154793766481    1.50802420492561    8.79714540967432
H        15.61045360289658   -0.09763650198054    9.13515218726572
H        14.63197960763607    1.33888836434644    9.44397947241383
C        15.86469219642036    0.20422018766176    6.43887199325699
H        16.76864908839101    0.80849107115899    6.44875425575146
H        15.51294726712550    0.13682263842955    5.41209179406443
H        16.12375663934332   -0.79821240955237    6.77902061976665
C        13.57060991082669   -0.09060117468079    7.36958784080051
H        12.78854244693719    0.34802241213149    7.98353052449877
H        13.82918635911208   -1.06616116294124    7.78185911510637
H        13.17424173528781   -0.24349947221393    6.36915388266170
C        15.69673311023769    3.80460826758713    7.33008143683079
C        15.46060909298240    4.62435324611776    8.43094096301509
H        14.50330397784176    4.57376618202552    8.92961629459474
C        16.42872052397577    5.49467772556093    8.89903663508571
H        16.22155215348142    6.12165252959988    9.75470931643415
C        17.66226060218147    5.56012229265229    8.27408394606834
H        18.42128372811878    6.23779680552037    8.63771995562732
C        17.91890314270037    4.75003776700310    7.18036520381057
H        18.88064875152828    4.79462272686889    6.68905509792587
C        16.94540243536046    3.88405571057837    6.71683227484886
H        17.15300936775780    3.25827374528713    5.86032815273484
C        14.19321856230838    2.79361638921531    4.85329048222462
C        14.66193078093423    3.93885492670874    4.21332898521259
H        15.16417063126735    4.69965619131439    4.79357139319638
C        14.49783390515817    4.12200153734629    2.85173545954891
H        14.87285937108362    5.01900886479057    2.37977192712842
C        13.85408367650297    3.15868344382543    2.09429639000169
H        13.72670239801711    3.29752094841300    1.03046050817398
C        13.37147422554025    2.01709128926977    2.71098285383615
H        12.86197370728745    1.26214546841976    2.12906232861229
C        13.54001994709642    1.84246415929637    4.07275790614444
H        13.14929080698577    0.95080919051424    4.54012213362231

