48
CSD_code = KIMPEE | q = 0 | S = 0 | Stoichiometry = C20H26OTi | MND = 12
Ti        2.68263434430563    4.49689987256938    5.55255810292266
O         1.56503812543920    5.43295001617189    4.64507854626126
C         1.71725580162546    6.77996996297291    4.39241535762010
H         1.93251919858206    6.91661108939567    3.31547455656387
C         2.86203588504252    7.36770264497098    5.26939124485951
H         3.75908733088699    7.50806375795351    4.65665701508341
C         2.35382885277860    8.74323540905839    5.77834687494720
H         2.10098126749040    8.65364735514360    6.83965489942508
C         1.02661421924668    9.02211472572722    5.01882582702713
C         0.48143932170799    7.61166204254582    4.76937765677500
H         0.06672633583969    7.19127645285627    5.68927514471821
H        -0.28595441604490    7.58701766969818    3.99697933587714
C         3.14944732605463    6.37011650725606    6.39885294357881
H         2.44611941873704    6.57849152715232    7.21507857422761
H         4.16254103943919    6.52683105181850    6.79532908449209
C         3.37329338140798    9.82513676172337    5.63895338753179
H         3.85973876050812    9.89869202473948    4.67531074327761
C         3.70381798258240   10.66088612744566    6.60717263999328
H         3.24395042160156   10.61134549047945    7.58099109083528
H         4.44601949559512   11.42966748759605    6.47243880862825
C         1.26086263388322    9.74606393316370    3.69134424347752
H         1.98577757827502    9.21936266857579    3.07740397385877
H         1.62462038326906   10.75533602025927    3.86962599322465
H         0.32715520456580    9.81398755523357    3.13656680354679
C         0.07608819588461    9.85636500814810    5.87469347977670
H        -0.85386597260107   10.03858465232115    5.34055644200853
H         0.53076203685798   10.81573245915867    6.11278025458175
H        -0.15911366906726    9.34546316581951    6.80583848194991
C         2.23714726331032    3.93060168556223    7.80132471871096
H         2.69052928945819    4.38829713229504    8.67385354202303
C         2.61987428504451    2.70841868594489    7.22570807215070
H         3.44850220925525    2.09365218438005    7.55134530773806
C         1.67402079557710    2.37212794672932    6.24294000970655
H         1.64052461707850    1.44819810575368    5.68107465960567
C         0.67105387590203    3.35955758565830    6.23881361478065
H        -0.24197777276457    3.33982830445371    5.65645083290363
C         1.00870561551586    4.32173681645499    7.20452430853395
H         0.38442248110014    5.14975012126960    7.51613519201461
C         3.99904489111263    4.67374509835145    3.55677408720790
H         3.79715470335268    5.35649184198868    2.74115125604584
C         3.53774615535113    3.34557637835897    3.65229629047953
H         2.93351777604817    2.83308356026921    2.91238367161502
C         4.17155907284586    2.74758406653596    4.76043420157916
H         4.13933407114600    1.69651673225362    5.00976388387118
C         4.94989640371885    3.71929113730058    5.40187728379369
H         5.63526511096407    3.55094814165252    6.22454066343005
C         4.85226870226414    4.91539851147878    4.64932066545020
H         5.47338996982552    5.79098252335950    4.78631623128783

