98
CSD_code = KIMVIO | q = 0 | S = 0 | Stoichiometry = C50H36F2IrN5O2P2 | MND = 6
Ir       13.23354182506473    9.61761097391449   13.24102419015285
F        11.03467097473563   10.94314719349505    8.46172455480423
F        15.63039459835759    5.02861022384458   11.56588608807518
N        12.14705067792145   10.01568645599704   16.47691324580540
N        10.83790002446642    8.09480141480323   13.14357996283746
N        11.96890496356618    8.25185132952559   13.86971744615364
N        15.72309217665363   10.47533030296209   12.18651695677641
N        14.52478160559136   10.94950767719119   12.59932480054833
O        14.44729383254492    9.71650780279271   15.14977150669013
O        11.90907127030946   11.22835961867271   14.09008010115498
P        13.77090392090983   10.10895287216601   16.43496036396457
P        11.33671439334539   10.98999439474636   15.45791345550864
C        14.29629285971015   11.78251354182607   16.92334821500575
C        15.08881182008639   12.55032858878251   16.08657093811554
H        15.48280720951028   12.10792886438090   15.18301958799464
C        15.37112307778399   13.86489284962410   16.41389278808520
H        15.98705898160947   14.46327090786341   15.75715160076685
C        14.86298667597643   14.40867374432127   17.58131970999008
H        15.07700159643609   15.43667331967914   17.83586051895590
C        14.08081125958458   13.63703372798238   18.42752830087254
H        13.68829651642599   14.06378500264301   19.33913352439935
C        13.79615921721066   12.32610844896455   18.09851083791904
H        13.17817834290322   11.71165040966045   18.73873855952291
C        14.32164043125151    9.01517498779811   17.77149657880705
C        15.68206466661716    8.92260501682133   18.02419131233378
H        16.36571886808367    9.51351586261556   17.42968949223593
C        16.14428642522971    8.08104544864219   19.01906065975971
H        17.20353974371868    8.00726792149131   19.21937199556293
C        15.24469931521242    7.33102237455473   19.76066655568548
H        15.60503480406314    6.67361916254734   20.53876011621893
C        13.88588566933326    7.42105326446323   19.50640235248471
H        13.18831280538563    6.83376052225287   20.08671363906134
C        13.42345403129966    8.26403246710264   18.51112529540544
H        12.36933080041124    8.35592263837779   18.29432939947525
C        11.10003504467018   12.60600197188154   16.26233484183632
C        10.44406416650154   12.66822142488759   17.48298042333692
H        10.00739428466984   11.76744673857634   17.89125364807539
C        10.36210080209207   13.86942679086069   18.16141983907018
H         9.85036015268617   13.92098698230295   19.11195208107157
C        10.94246244401593   15.00836797565285   17.62488898651335
H        10.88367181919716   15.94561477410448   18.15924720457755
C        11.59748236070431   14.94760292614616   16.40654268466600
H        12.05016908858165   15.83606480918919   15.99011500967357
C        11.67518800669993   13.74628771658990   15.72582605090353
H        12.18036385656600   13.67973261481833   14.77328445315386
C         9.68806322338428   10.23765432883524   15.33909803547152
C         9.21173675407145    9.37103425527519   16.31066139343627
H         9.83675679068960    9.14852906151368   17.16221707733101
C         7.96141554479289    8.79714568737282   16.17042962845404
H         7.58779432864982    8.12216173657399   16.92671088005234
C         7.19055551045377    9.08171772927022   15.05507234343102
H         6.21531251333827    8.62993083415463   14.94604221884732
C         7.66850732235620    9.94059890981023   14.07842099023819
H         7.06821425327456   10.15896542397295   13.20681819013703
C         8.91555717402679   10.52070246106188   14.22218076139428
H         9.31051308495612   11.18787537766485   13.46847708244673
C        11.91194475893955    7.49260238248119   14.93727864493373
H        12.71931337900162    7.45620113187446   15.64279665332671
C        10.68436445417234    6.79902687541663   14.95220132275772
C        10.10046027724148    5.89027009796344   15.83747755564243
H        10.62373590133545    5.59629185663025   16.73395890698490
C         8.85793200494902    5.39599974442746   15.52975344828228
H         8.37517790767903    4.69293639753610   16.19153584978362
C         8.20022647289609    5.78749257345044   14.35763530367843
H         7.22661378929735    5.37278735647715   14.14367268684035
C         8.75311151755828    6.68284697431156   13.47064233260802
H         8.21112492309991    6.95358821577506   12.58145657671327
C        10.01060680270985    7.20620052214306   13.76861637195219
C        10.80436034497037    8.80891752406940   11.93927535448596
C         9.72594994486398    8.81591497791091   11.06755198913326
H         8.82220769199951    8.27866722110530   11.29367848016135
C         9.79838297849882    9.53858617663893    9.88927120244386
H         8.97310080506469    9.56044342171917    9.19616036333180
C        10.95496153354687   10.24022869631166    9.61414459666068
C        12.03273429531792   10.25804476975293   10.48365900365305
H        12.90313299462897   10.83788852347834   10.21782019101386
C        11.97982372156953    9.54349571740240   11.67100944347116
C        14.60710571165517    8.40665513575193   12.40011166643223
C        14.58514794404694    7.02843482685459   12.24280240479724
H        13.72404318463585    6.44549425951781   12.53050406287693
C        15.68071749672237    6.37212091461286   11.70728272843633
C        16.81797181290822    7.04250264354998   11.30342322354694
H        17.64691362481675    6.49855647097153   10.88068192021327
C        16.86370027240057    8.41801192359765   11.45168838837768
H        17.74232509665335    8.94659310163468   11.12611827221284
C        15.78033855374156    9.08624125409110   12.00162743871979
C        16.60185981939053   11.51082048952377   12.04183795053034
C        17.95072983322695   11.58968479536874   11.69470542257703
H        18.53847183152537   10.71677005607325   11.46909891940445
C        18.53800477805536   12.83440657782334   11.66659349104124
H        19.58191404522712   12.91499517190865   11.40342827352739
C        17.82772488050719   14.00154362775426   11.97425273503710
H        18.33881689975366   14.95142331240815   11.93537739081169
C        16.50340414327190   13.94638978078087   12.33003811802132
H        15.94515839785345   14.83513602041971   12.58049650157000
C        15.88405123761887   12.69451940275291   12.36890072710404
C        14.58638124830257   12.25589513379430   12.70672014628275
H        13.73251878064007   12.82656408093936   13.01324546537653

