66
CSD_code = KIMWOV | q = 0 | S = 0 | Stoichiometry = C27H32N6Zn | MND = 4
C         2.57768701210608    8.75038686672081    2.86610229779659
C         2.73918849727277    9.12528032990230    1.54764792826644
H         1.97698682720920    9.46812922285063    0.87851711274451
C         4.10387590531889    8.97059145533342    1.26953412532185
C         1.35292638662886    8.71325817026504    3.70386155378263
H         1.12236035248278    7.69486481478415    4.01891550761837
H         0.51338006923102    9.09150517684766    3.12751458652137
H         1.46743057992970    9.32649744096281    4.59891952664285
C         4.82116355249850    9.22852016287666   -0.00402798021304
H         4.69576138486333   10.26856873891670   -0.30081617754777
H         4.42048807441633    8.59970685253629   -0.79800984887512
H         5.87915285006365    9.01817540112172    0.12330682283392
C         4.37558359171668    5.58192964662846    5.24137221840392
C         5.35419079287891    4.63167429468745    5.03373053660669
H         5.34236223601687    3.61355268079928    5.36474065246906
C         6.36237030001347    5.27383617041068    4.30262652461701
C         3.06391712590352    5.45596697003097    5.92460132736042
H         2.24422987083547    5.61126894873774    5.22180877953051
H         2.96305251291208    6.18190343823373    6.73260487228152
H         2.97297281467343    4.45654579600458    6.34076228495027
C         7.64475247358307    4.71517473163339    3.80650797248405
H         8.14028593271742    5.44576986823789    3.17322295103955
H         7.46604725861014    3.80380458479407    3.23893976614727
H         8.29635486185513    4.46991825311929    4.64398666662497
C         4.16718302964115    7.99833357812776    4.64436408810245
H         3.24351449738473    7.90003718651079    5.22259905750247
C         5.00698915348056    9.12659293468190    5.32894700956970
C         7.01954085868464   10.37254013430276    5.24906318811894
C         8.39385025754273   10.19899216716977    5.09066405605716
H         8.75669662981446    9.28121740105191    4.64560502805216
C         9.28649859406999   11.16870406052411    5.50096372109148
H        10.34727625935137   11.00398508456822    5.36880190553080
C         8.84206231638308   12.34883018130160    6.08114848385594
C         7.47187725155020   12.52376069641810    6.23431339671345
H         7.10247524123583   13.43795719796925    6.67891940413513
C         6.57068105199904   11.55884913323691    5.83194393392877
H         5.51402689043702   11.72261439291855    5.96134253832664
C         9.80204547595704   13.40679169817563    6.53890208009962
H         9.77275957916275   13.50181776950974    7.62461911355508
H         9.53771275437768   14.37443847822615    6.11399678724520
H        10.81944367471452   13.16258543941807    6.24266637575366
C         3.35406353637029    9.41596109019498    7.01648864707191
C         2.20903377385880   10.21250667749596    6.90886822519092
H         2.22172216617298   11.05532004680720    6.23165319205477
C         1.08700581637744    9.93761797704674    7.66535970660530
H         0.21181235487892   10.56455310076267    7.56019378566298
C         1.06214918154958    8.87415923126904    8.55832378740017
C         2.20875729919388    8.09735118297560    8.68612973072960
H         2.21617316077066    7.27563197589937    9.39019890042890
C         3.33517331641439    8.35529144002267    7.93248365697039
H         4.23148345301738    7.76164935773325    8.05565539578218
C        -0.16066022084950    8.56240244012031    9.36914730109441
H        -0.89611614367135    9.35868908155064    9.28329209851173
H         0.09726347575738    8.43777356382261   10.41983355272494
H        -0.61918333925338    7.63330609780111    9.02697121058531
C         8.22711451839714    8.21732803352488    1.80685630437869
H         8.44532198724850    9.18311803678933    1.35859020364283
H         8.00558456084578    7.53895135487129    0.98658226976007
H         9.16137401317422    7.87269229362355    2.24271600758332
N         4.72748409873841    8.52820659508501    2.35127058889591
N         3.80350665270072    8.39064165458341    3.31008650734902
N         6.01520378020802    6.53247819890465    4.08478473597206
N         4.81760011899140    6.71900707402868    4.65421587922060
N         6.17986052954642    9.36610380911540    4.76801416058463
N         4.49055985740005    9.73723091507338    6.32859672443881
Zn        6.72445727264144    8.30585122034798    3.13035725231380

