23
CSD_code = KIMYEK | q = 0 | S = 0 | Stoichiometry = C7H9Cl2N3OZn | MND = 4
Zn       -0.61379735388362    3.07405675156703    9.16921148501373
Cl       -2.46744657897063    4.23156751917412    8.82550797520769
Cl        0.35411669754507    2.10799290905265   10.86681073297754
O         0.82611175765857    4.13576802235493    8.08767146022601
N        -0.64973283763348    1.49503073286134    7.67608963952778
N         0.50272278193333    3.73783230658011    5.86251551742291
N         2.49088147512643    4.56664095787431    6.65119174764761
C        -0.59077823007071    0.23608137606315    8.09089560310064
C        -0.73510124592134   -0.83953272868862    7.23062229605140
C        -0.95006892536372   -0.58671470531353    5.88562712536177
C        -0.99610332788039    0.72976061388658    5.45616313526372
C        -0.84098755845933    1.75311474793974    6.38341404659315
C        -0.84412538981409    3.20338219566941    5.96971787435556
C         1.23133934370305    4.14159197933487    6.92805979872355
H         0.97127739586236    3.62901544045755    4.97730682995935
H         2.78747113639654    4.79132112878546    5.71852802299275
H         3.00559259627791    4.96633612028058    7.41800794486904
H        -0.41486777190488    0.10057219987438    9.14915236798688
H        -0.68481021349129   -1.84717034933256    7.60998110950160
H        -1.07528772848347   -1.39678619524618    5.18298892486153
H        -1.15825567495593    0.96517222089061    4.41533717108231
H        -1.39229038716737    3.78277645871259    6.72158641234935
H        -1.33095996050260    3.32129029722105    5.00111277892436

