62
CSD_code = KIMZOV | q = 0 | S = 0 | Stoichiometry = C17H35B9Zr | MND = 11
Zr        3.20360321592452    3.89982162496068    3.83964909897267
C         3.90002936576044    2.62438243333981    2.16582293338446
C         5.09790906076563    2.73259220511940    1.57515144028534
C         2.95237724490319    1.54855818830364    1.62994780801723
C         5.58066290757371    1.87446424578637    0.42336007582102
C         6.10626075500562    3.76690040654896    2.03756099206461
C         3.86165427967030    3.80888092982717    6.27064382837419
C         2.70855544060551    2.99344078913141    6.11985839802200
C         3.06270329396101    1.88023245116691    5.30978819992441
C         4.44359596179811    1.98716018397083    4.98211422677884
C         4.92530920220160    3.19701357958054    5.55457564854218
C         4.04095002247559    5.01764008316727    7.14988804964761
C         1.36902498284867    3.14130020725523    6.79177573130222
C         2.13440430612401    0.73003291302389    5.01896348478817
C         5.30762999698213    0.90825254751801    4.38632065839743
C         6.35771890075514    3.65984605638538    5.61448139469426
C         3.15483384446891    5.63763760356812    1.95984112423480
C         1.87732314842706    4.78086082647344    1.81801466290816
B         1.05311769493588    4.66863103460512    3.24057378992592
B         1.89483736360690    5.72187640624814    4.39249280321849
B         3.34008721046472    6.22122034359925    3.49215988266305
B         1.84040207238009    6.34447726066539    1.06220997201421
B         0.43216350213395    5.72208222756120    1.92153693517027
B         0.46965369103988    6.35364288630647    3.55572042219594
B         1.95308722433241    7.35806240718192    3.71714425066635
B         2.79661978148460    7.31537892754087    2.17816666639236
B         1.01609594952850    7.38214678575077    2.19052435741812
H         2.79725384604136    1.65698415337136    0.55075872894022
H         3.37498781870561    0.54918600745713    1.77913362845337
H         1.96939461251260    1.58285898968689    2.11975078998771
H         5.55896701288561    0.81789062375329    0.69247016013432
H         4.93671510588604    2.00090818895462   -0.44847977683603
H         6.59648068664091    2.13433436666576    0.13576703621432
H         7.04688155401728    3.28449219833505    2.31409955047745
H         5.72844759865390    4.33774969625007    2.90371155569130
H         6.33721330964567    4.46446095395546    1.22826849370592
H         4.83235591863614    4.83165420331305    7.87916078696842
H         3.13021613887821    5.24521780609483    7.69841141449783
H         4.31858591038196    5.90334913919241    6.57162356118480
H         0.56270377742148    3.29011483525808    6.06723989006881
H         1.14165465286382    2.24188267615775    7.36792035115273
H         1.36504158258979    3.98487136871977    7.47799312972457
H         1.95013688350848    0.15096049339114    5.92745936866988
H         1.16525373399898    1.08525127605425    4.65465120063121
H         2.55856835264170    0.05408826811847    4.27915523200482
H         6.04165570532783    1.31318005122927    3.69125819682529
H         4.70878238206825    0.17201570978105    3.85511484063550
H         5.84684722769451    0.38673732204248    5.18095174604142
H         6.75881058898082    3.51222539961100    6.62044231420147
H         6.44860047361580    4.72501463829361    5.38235227872597
H         6.98254203975076    3.09465030297900    4.92620664723678
H         3.99073293716373    5.37949335085153    1.30410932163822
H         1.89913645469353    3.98338522095775    1.07235124892344
H         0.40860128605628    3.65788399043958    3.44784416388107
H         1.80588965885926    5.65655451902716    5.58061857457055
H         4.47036587172022    6.42224501793706    3.89850666236756
H         1.94637500766753    6.37817292459626   -0.11045950009746
H        -0.50574091928877    5.38319322600168    1.29214176308050
H        -0.52337211589788    6.57745374585573    4.15461201156736
H         2.01804143376652    8.29583840884306    4.43223221861584
H         3.54235653619229    8.11375353494882    1.73364718518473
H         0.41500651511299    8.33051183731738    1.83518838907396

