60
CSD_code = KINDEQ | q = 0 | S = 0 | Stoichiometry = C19H13F18LaO9 | MND = 9
La        5.49253306409459    1.74088903304200    0.69434613815357
O         3.25601346564134    0.98549468195493    1.59984786656309
O         3.88469421038544    3.57340244051641    1.12487873370575
C         3.30155687219044   -0.21177819662114    2.37016806651448
C         2.49933179001130    2.00355072424472    2.23943907788005
C         2.52332826296321    3.22348058839884    1.32483404554314
C         4.02976417204015    4.87460401121281    0.56534639143064
O         4.47435912171444    0.02896790828016   -0.52281762860312
O         5.04512235244440    2.52823450686619   -1.38404322318848
C         4.07826664014884   -0.12570050888273   -1.68472316809496
C         4.07897175237056    0.82349123105941   -2.72044311550636
C         4.58220155688817    2.09058253000921   -2.46644535763989
C         3.47677637547175   -1.50508715569270   -2.04737439318704
F         2.18330394739768   -1.38323011203490   -2.39826133287212
F         3.52205110581441   -2.34153725263758   -1.01300580154911
F         4.10092088212336   -2.08241598559230   -3.07590372267929
C         4.59951107068790    3.12081588561682   -3.61251601143356
F         4.06912053417208    2.69172708620929   -4.75635826690413
F         5.86027416629305    3.49848699476958   -3.87122421716332
F         3.92461984366129    4.22215639113361   -3.25338702608036
O         7.05606421470810    0.31821411692895   -1.16792499650811
O         7.53481402999064    2.47800924118220   -0.03347072560415
C         7.63376867350175    0.79644516977408   -2.13536253462527
C         8.13067560618186    2.13241557827170   -2.24573578465295
C         7.88559829294907    2.97420211552798   -1.19396606542953
C         7.69801432687630   -0.02518992452044   -3.44784796743165
F         6.75257648294896    0.41725885825373   -4.30047231949159
F         8.87061817628475    0.09899748819309   -4.07402890194786
F         7.47367605389885   -1.31578864328672   -3.24430883602003
C         7.87526193528661    4.48836022628105   -1.33708169937960
F         8.41543916648737    4.88360984809940   -2.48954104960001
F         8.53743250582989    5.10108106668056   -0.36055902748512
F         6.61143809672426    4.93599281045866   -1.31599758916113
O         5.55204248823685    1.93377243901525    2.96339387875495
O         6.71295557759196    0.03531317946682    1.63682734614675
C         6.71755542606485    2.29595501590406    3.22772695142428
C         7.88246756056651    1.54962266035766    3.02449700156499
C         7.76559484411803    0.46703914070703    2.14725548550091
C         6.82426165822249    3.74738128998516    3.72027821322610
F         6.56634928422764    3.87115790781485    5.03051124664333
F         8.00566753442515    4.31684778813691    3.49973927214330
F         5.89002900583575    4.46620075748803    3.07146258682240
C         9.07141068564568   -0.13277271742400    1.59512837005357
F         9.39391298678447    0.53893953342021    0.46440122452234
F         8.94824258003071   -1.41264024750387    1.26776860080020
F        10.11932700359204   -0.02241147552684    2.41590850008543
O         6.87156463531428    3.34020274091291    0.82795063241269
H         3.88929827856696   -0.93097947702138    1.79837523189152
H         2.28852401129730   -0.60122844977485    2.52440591824696
H         3.77804182476457   -0.03240734656963    3.33949904505644
H         2.96023483483436    2.26102862289901    3.20375299062167
H         1.46526570447772    1.66492149933626    2.39921434060335
H         2.04502520674661    2.98654793362696    0.36121535971490
H         1.98516131305710    4.05450302040794    1.80080212361985
H         5.09447218630202    5.09562709893588    0.58153418341126
H         3.49817650671749    5.61007997879941    1.17730839546270
H         3.65659819323490    4.90964805190634   -0.46328273318464
H         3.71339098088416    0.56364485494115   -3.69855627634529
H         8.53996930479960    2.49969993528748   -3.17122213217067
H         8.84216163521860    1.90476351094630    3.35684468584743

