144
CSD_code = KINMUP | q = -1 | S = 0 | Stoichiometry = C64H64FeN9O6(1-) | MND = 5
Fe        4.40859090135120    1.58600562663504   17.60061556256049
N         5.24092965762043    1.12181931287368   16.16450563579125
O         5.33458552575202   -0.08644419212681   15.90440443529749
O         5.70282254811128    2.00554084515230   15.43233276323323
O         0.23220376907990   -1.48171222378185   12.26098884964611
O         5.94134749948666    6.35518899747507   12.10510023535084
O        11.94078028492839    2.04960573186719   17.88169061031458
O         6.69210545424810   -5.34560094241051   16.31438636094529
N         2.91275988142574    0.27730418646506   17.37251314523807
N         3.31778914908546    2.95919061765802   16.63303018972566
N         5.73850535205828    2.98986688590340   18.12400593828816
N         5.38788472380863    0.27207202591981   18.75490131915870
N         1.07728233675484   -0.03611287881210   13.80021738198012
N         5.71867265513671    5.35216697648191   14.13524561818220
N         9.73823565072087    1.78171422326878   18.37744089536743
N         5.48894377295239   -3.50326520800594   16.89460699315125
C         1.72299240008936    0.47664952180769   16.73615767932163
C         2.90450551257771   -1.02254549424544   17.77797831932443
C         2.12790553952224    2.77862617278015   15.99057600629778
C         3.72910910761976    4.21457511681793   16.30889028244996
C         5.78312652519393    4.26906381395493   17.66108628603710
C         6.82464492484238    2.84917881936623   18.93760582608689
C         6.54913421511722    0.46484260042220   19.44328215333800
C         5.10471973755404   -1.05377471854247   18.86900320741326
C         0.91443715563461   -0.70862385412859   16.80453435580402
C         1.65847303190382   -1.64859437684903   17.43200262954883
C         1.78113437218621    3.95159490574928   15.23950286721581
C         2.77528507419119    4.84688178669700   15.43926872078973
C         6.92038741377591    4.96028290879727   18.20359533773529
C         7.55587944910824    4.08336564452107   19.01412297115137
C         7.01169250222496   -0.77259299281774   20.00427725143808
C         6.11983215440434   -1.72143857586653   19.63611273385636
C         1.35202035196143    1.62542772121431   16.03896286448543
C         4.88175508895285    4.84375022434039   16.77154518720661
C         7.22390422486224    1.67435022163064   19.57005417410428
C         3.95655532238977   -1.68541417834668   18.40086709825946
C         0.08849291945282    1.58321809768733   15.26809030396445
C        -0.03625260908427    0.72288044643162   14.16313793766023
C        -1.23776229774689    0.67563301249130   13.46475777293759
C        -2.30078923517298    1.47176117672075   13.85151426626871
C        -2.17897543989345    2.32987003845383   14.93029759051550
C        -0.98641149180489    2.38086319507420   15.63084902812990
C         1.16291299767232   -1.07284450133470   12.92559940141508
C         2.55806360240926   -1.71550224429078   12.87352143203909
C         3.67426515236566   -0.66549351026754   12.88154508967225
C         2.68444618880145   -2.63794187555055   14.09281779320148
C         2.64671345266125   -2.54766015587651   11.59164763780462
C         5.15104933082081    6.22231257836171   16.29998457621762
C         5.55911063837912    6.45439805540132   14.97662576799390
C         5.80034503514069    7.76121312236532   14.56146969209022
C         5.63324004440646    8.81758227987776   15.43836105565593
C         5.22991608016571    8.59163354713248   16.74249460794933
C         4.99371823400617    7.29510636340672   17.16489825539421
C         5.86811002834072    5.34938917984461   12.78359028945817
C         5.94256609340838    3.94507506559436   12.17081084070409
C         7.15745761905686    3.20573285393380   12.74144788958378
C         6.09282873131397    4.10001107163982   10.65539115190763
C         4.65936286198547    3.16887973160192   12.48877222278646
C         8.46003318858412    1.70596346395855   20.39015312555468
C         9.71882186750567    1.77740120503564   19.77203219688172
C        10.86810725688499    1.82228174272856   20.55247290975260
C        10.76953563088664    1.79410265660522   21.93223971432637
C         9.53239033306869    1.71346499266611   22.54709623857981
C         8.38484591366701    1.66794433475500   21.77345387983465
C        10.78484645022567    1.91693914505803   17.52781641439163
C        10.41976800946045    1.89520172944176   16.03385916192914
C        11.26648465916222    0.78572522643962   15.39707934810945
C        10.84021649745466    3.25639366142872   15.46540848421385
C         8.94361487687668    1.65207296493793   15.72810939939309
C         3.83158627925455   -3.14811541370167   18.59942427594459
C         4.59504088363909   -4.03714031815642   17.82551044414179
C         4.43835655332951   -5.40707409538642   18.01851481772124
C         3.55676046910088   -5.88586191116441   18.97041992377013
C         2.81221654258809   -5.01149640935578   19.74200085787061
C         2.95179487481337   -3.64859612051298   19.54764494042161
C         6.50995034717257   -4.14494250566907   16.26484545236475
C         7.44128382513780   -3.21581915329805   15.47433902238735
C         8.60808978000609   -4.05594013063255   14.94830848602748
C         6.67495105956828   -2.60044885437693   14.29941929301797
C         7.97475871742343   -2.10821751200395   16.39006308650137
H        -0.08159057802062   -0.80073777224222   16.41546380918246
H         1.39626040921436   -2.66517629079671   17.65130719803165
H         0.89697347704384    4.05964270072620   14.64108329900007
H         2.86118755780284    5.84349277387918   15.05057371343557
H         7.18113946241800    5.97918378189614   17.99191512234267
H         8.43929398127613    4.24056098699829   19.60361831944698
H         7.90526225283265   -0.88484030284752   20.58844171891516
H         6.12323366045964   -2.76875764957693   19.87110580273546
H        -1.33015391954707    0.00754362643597   12.62518715294578
H        -3.22933958088436    1.42093561837716   13.30150411015545
H        -3.00866734538011    2.95415153544356   15.22875783831001
H        -0.88090429038374    3.03906988681120   16.48141746047025
H         6.11057652635561    7.94139301681736   13.54639240857797
H         5.82235061554103    9.82499115268473   15.09629103601231
H         5.09819352715565    9.41732742012500   17.42689304973482
H         4.67332576971466    7.10174979905743   18.17896422366769
H        11.82885483255565    1.88089031196819   20.06909334065502
H        11.66936681528913    1.83246763026367   22.52904462804501
H         9.45865084467785    1.68740214299027   23.62465998089651
H         7.41242891428605    1.60754366736759   22.24090092911726
H         5.02029157090843   -6.09124809874483   17.42512408239246
H         3.45300336596813   -6.95265278857204   19.10731919018676
H         2.12666142679894   -5.38536352360693   20.48879062592808
H         2.37918373383167   -2.95136286468712   20.14296786309316
H         1.90693123442837    0.17693600689948   14.33956888667394
H         5.62430004027785    4.45404394053255   14.59751060375050
H         8.81444609244142    1.71207447399881   17.96954904301846
H         5.42570036201328   -2.49701183012990   16.78114501815494
H         3.42620344391715    0.16671129839826   12.22534248690189
H         4.59721592022817   -1.11710265963837   12.52466876761551
H         3.87618265698198   -0.28230138742650   13.87964999233060
H         2.65661735869105   -2.07213058816090   15.02078187753575
H         3.62716283260713   -3.17801152082268   14.05417609700907
H         1.87139232831632   -3.36109374029621   14.10612124089690
H         1.80278634969662   -3.22966651812555   11.52977498795171
H         3.56966686328210   -3.12252348267879   11.57755947779591
H         2.62177865881008   -1.89900556950763   10.71869420166644
H         6.98086698788435    2.91525356881342   13.77316740303084
H         8.04808008387914    3.82998663662441   12.68840315313275
H         7.33526564368023    2.29986401075617   12.16482813308906
H         6.98758393721134    4.67247575816461   10.42289120558727
H         5.23835430345529    4.63223280084244   10.24470736737846
H         6.16340966822811    3.12403910162375   10.18031499091324
H         3.77752689780979    3.77201483970071   12.28003871807090
H         4.63604089236817    2.85633003201533   13.52969297768400
H         4.61905303786808    2.27325524355392   11.87261217389316
H        10.96007938271606   -0.18831348542166   15.77427708943255
H        12.31556096271013    0.93348121682353   15.64173781237139
H        11.15023811105697    0.79353649414138   14.31554623506573
H        11.88240799475281    3.45426791076853   15.70484541130680
H        10.22877319600639    4.04937174676569   15.89195930018849
H        10.71653107694467    3.26727608625936   14.38478435747818
H         8.31074750750714    2.46548704965520   16.07956158926316
H         8.58706817560928    0.71472630891551   16.14926827473715
H         8.81224078132890    1.58976883315704   14.65006137247400
H         9.16168930403745   -4.49236145224281   15.77627136771806
H         9.28248269498669   -3.43909915992631   14.35830383507418
H         8.23729347416080   -4.86825720042206   14.32820010415838
H         6.18806190200723   -3.37787769486066   13.71257457471100
H         7.36872307833057   -2.06578371151907   13.65320230392895
H         5.93196509893071   -1.89024041375961   14.65148819503987
H         7.21126267058132   -1.35785617745051   16.58185574052672
H         8.81670063391942   -1.61836486603605   15.90474894472963
H         8.31613011152108   -2.51584014012643   17.34024982120384

