22
CSD_code = KINWOV | q = 0 | S = 0 | Stoichiometry = C6H10AuCl2NS2 | MND = 4
Au        6.81107545182170    2.64396988335039    5.35297665806238
Cl        7.11974958623249    0.47555288409490    5.94660253062945
Cl        6.87434095257505    2.05890118179746    3.16136004771037
S         6.48358550642884    4.97510082658384    5.06164135340624
S         6.69900057630578    3.56884737253819    7.53453252109414
N         6.28466465202408    6.20859512220411    7.42603454544964
C         6.46874851089653    5.08709602079577    6.77229918161885
C         6.35715544911685    6.29461083786652    8.86938370359884
H         6.40242972790024    5.28753365255102    9.28540021458442
H         5.44784520884701    6.78825097669696    9.22563025621043
C         7.58716387741509    7.10968776017994    9.26878256967062
H         8.48500849227919    6.58076644759982    8.94492052666069
H         7.61843429730491    7.19937164672740   10.35433649079602
C         7.53382693943068    8.48836149413201    8.61629831528840
H         6.67827472129375    9.04463742984086    9.00532337208399
H         8.43641145898413    9.04953991864638    8.85861420450850
C         7.40292011712484    8.34114924410519    7.10286194628333
H         8.29370269253033    7.85714987328522    6.69908126838483
H         7.30217442238520    9.31731606183149    6.62916525919441
C         6.17765455697966    7.49194217338799    6.76461373140163
H         5.26888397375772    7.98412943156969    7.12419360023040
H         6.09544882836523    7.33358976021457    5.68874770313272

