14
CSD_code = KINXEK | q = 0 | S = 0 | Stoichiometry = C6HCrNO5 | MND = 6
Cr       11.38546380798211   10.35970667263321    4.27062875988545
C        12.91756472522152   10.93137349818264    3.23109684436626
N        13.83954671188591   11.27564954698451    2.60414786822377
H        14.62621338795597   11.57481208421700    2.07539783235687
C        12.47886525698464    9.53823889945092    5.55479338207823
O        13.06709171367337    9.01092441853935    6.38552271128764
C        11.39404108565287   11.94177204052588    5.27882365430758
O        11.32174564236949   12.87233779905232    5.94442284886137
C        10.18732395054623   11.14033314742020    3.05619408786069
O         9.38473281170594   11.58544757097888    2.36926449657179
C        11.26885819774066    8.73643548361534    3.33721562183514
O        11.12109401975527    7.72243497853306    2.82331469900221
C         9.91299554725340    9.81432942997237    5.27180177685406
O         9.00596314127359    9.48050442989454    5.89047541650902

