55
CSD_code = KINZUC | q = 1 | S = 0 | Stoichiometry = C20H30CrNO2S(1+) | MND = 9
Cr       -0.00367319649060    2.19453977756080    1.46046361529315
C         1.76354709604281    3.16207452073924    2.71765838134789
C         2.91135805594559    2.46295157692428    3.41010803204474
C         3.82557340774928    3.48113203187748    4.10436050592906
C         1.92023981070526    3.62782437202676    1.38796499465938
C         3.21048081115248    3.36893036880112    0.64395390586069
C         3.15949979715000    2.04726695538606   -0.13121971527227
C         0.87224618358526    4.34844468372195    0.76459448023340
C         1.07080209236827    4.91681400758660   -0.62163519031396
C         1.69520347165980    6.31648734461539   -0.54596156829962
C        -0.31979669059262    4.62613744069004    1.47880848122332
C        -1.42086053317028    5.43461551858303    0.82892986367098
C        -2.43070754120116    4.53544233933419    0.10725792147295
C        -0.46801412167648    4.17594055972646    2.81452446012344
C        -1.69289067310944    4.56403920006584    3.61030739924265
C        -1.46862894997738    5.90609932633695    4.31999040793429
C         0.57688753149265    3.45143324313621    3.43792351011380
C         0.43150875278000    2.99477109479089    4.87163595371694
C        -0.20324983152815    1.60148214603976    4.95685720481405
C        -0.33521613832950    1.74955183183806   -0.34209922825214
C        -1.70159109493260    1.51823547716250    1.73657985333828
N         0.54401456914835    0.66026465914270    1.69553373400783
S        -0.57964711019332    1.33420115086369   -1.79416850657054
O         0.93008802784386   -0.42257564238128    1.86624473138083
O        -2.70515793557112    1.00231249670610    1.87730459606053
H         2.54043947370253    1.75250225157405    4.14782017770085
H         3.49627702438689    1.88438707732129    2.69640853978502
H         4.64359481998617    2.96295990701977    4.59681128506450
H         3.28301355203384    4.05386933340357    4.85278783949690
H         4.24654007252572    4.18527023448821    3.39054298082158
H         3.41650462044293    4.17975790054014   -0.05248537258204
H         4.04885891194453    3.34047554457982    1.33764658123284
H         4.10073889499058    1.89161914286124   -0.65161489045773
H         2.35875923536895    2.05511977289001   -0.86894905376168
H         2.99862166605544    1.20204094201727    0.53609956303909
H         0.12185444015874    4.97379219745608   -1.15298424989303
H         1.71458037930486    4.26793603639923   -1.21330225816144
H         1.83283010410682    6.71159242205679   -1.54850911953165
H         2.66366764674605    6.29009115069929   -0.05226573065318
H         1.05985149756022    7.00293868700694    0.00857924360658
H        -1.00240850127433    6.14043757218990    0.11381745685294
H        -1.94503465502788    6.02968826963421    1.57465624138353
H        -3.20261044376374    5.14580924271259   -0.35387643751254
H        -2.91125126543874    3.84595855685542    0.80019916333663
H        -1.94623434181213    3.94962681881660   -0.67291810689702
H        -2.56527471277621    4.64156344243298    2.96321378924088
H        -1.92793003459820    3.80163407767771    4.35140304504000
H        -2.35197436311856    6.16887402894746    4.89523813963472
H        -1.27545073900338    6.70281268177833    3.60550145169336
H        -0.62003125739336    5.85651988926336    4.99820419856442
H         1.40210282841894    2.97127143237762    5.36376078015697
H        -0.18010459307477    3.69768272164597    5.43453547030704
H        -0.29582946610211    1.30480024744937    5.99826864988522
H         0.40588234673422    0.85636459368130    4.44722256026601
H        -1.19729893193475    1.59188734294895    4.51187023858162

