122
CSD_code = KIPBAP | q = 0 | S = 0 | Stoichiometry = C43H73ClO2P2Pd | MND = 4
Pd       14.28513663551992   18.08679860044527    5.71551579134864
Cl       14.52504805993061   20.46453809260899    5.66543822384474
P        15.27853291388095   18.27600473705811    7.81181358445415
P        13.39977085799296   18.09657164571941    3.57913634505756
O        15.14545159132745   15.48251377031892    5.42912278662610
O         9.73968361213199   16.43265666022187    7.57472372834330
C        14.19741268870220   16.15375026517437    5.77920802307400
C        12.94739633811659   15.51878707384940    6.29886753277111
C        12.89874680411491   14.02301993409080    6.34698191001622
H        13.90296494812066   13.63700506382547    6.53985009163122
H        12.60481299466599   13.65460838290294    5.35774272259519
C        11.76036206234758   19.79581426719330    1.89714930416102
H        12.51533205404644   19.66110903946828    1.11898984309463
H        10.96555251009130   19.06550298037639    1.73345686414135
C        16.90364821436088   19.12627595943563    7.48161481350332
H        16.59971334225551   20.15506519894560    7.23933082214982
C        15.67126482851583   16.88450874324358    8.99698240253884
H        16.12562726427371   17.33981329130603    9.88582556984377
C        11.91492970356502   16.27769641466141    6.70419600911242
H        11.98878771172618   17.37045380502603    6.67878227323415
C        14.34391953403175   19.53322078215775    8.82938449160814
H        14.65693295356835   20.49206022402583    8.39367124095896
C        14.60766859922306   19.58056986513572   10.33252021160698
H        14.26900759559143   18.66096074878006   10.81284089778930
H        15.67360029069495   19.69529597907569   10.53730718615773
C        12.37522397119742   19.61441504531200    3.28037299941406
H        13.11048891677163   20.41602923332734    3.43866449156682
C        11.90077391469802   13.54761726594134    7.39646477640082
H        12.26817857705030   13.80653631714618    8.39246533023883
H        11.79468443431176   12.46220723519955    7.35012125878733
C        12.49531032014536   16.57781481997010    2.93386052294132
H        13.04075389204906   15.74482358782315    3.40275073760404
C        15.57105955034748   19.57425735661613    2.53887887288820
H        14.91564028074790   20.41305775047358    2.29778521690700
H        15.89953811659235   19.69547824657242    3.57567839247121
C        14.38625412342494   16.15923025016178    9.39663404817392
H        13.66601218869953   16.85514610063059    9.82931125332066
H        13.93440818939703   15.73247914023876    8.49874218250277
C        17.52718071567723   18.53843292015612    6.21020245833682
H        17.84089565185366   17.50435750731524    6.37199167022787
H        16.76270071576372   18.54107517036857    5.41177041024835
C        11.32127912392078   19.79790553218337    4.37456844335917
H        10.51767141272373   19.06666542396521    4.28172402491649
H        11.79803488366523   19.66417867442437    5.35407024348391
C        13.84877921105047   20.75916642126594   10.94277468570786
H        14.03917196895906   20.79970880044696   12.01790213530880
H        14.21233371625139   21.69034398013684   10.50237629336918
C        11.16474561315975   21.20049012755585    1.79980371457195
H        11.96302532983277   21.93825793196108    1.90700375304926
H        10.70815579516175   21.34075891846512    0.81708033962475
C        10.73475768589218   21.20257041286423    4.27565804642715
H         9.97374156525733   21.34185192945884    5.04596798380517
H        11.52705023963329   21.93342168214797    4.44882246697335
C        16.64879475221601   15.87105622615670    8.39945670536083
H        16.23063544012834   15.45144084191364    7.48248823205260
H        17.59093145264927   16.35413864539687    8.14102622021432
C        14.67244400810259   15.04129209638954   10.39509333175808
H        15.10118810398945   15.46668872269518   11.30612563520451
H        13.73898482518355   14.54331355931059   10.66850506947698
C        17.92616904269756   19.19148008444079    8.61338941289229
H        18.28021957038659   18.19376916815352    8.87779391361990
H        17.48223139061117   19.63972039444034    9.50400600654589
C        14.82285122169429   18.24955780308024    2.39139502193408
H        14.44232584014319   18.17792266336096    1.36466738792564
C        12.50028323995726   16.33967175611457    1.42289858761726
H        11.94938625868918   17.13168289610488    0.91431858049960
H        13.51765132954702   16.32589807847172    1.03227396360169
C        11.05363131428933   16.53425613848673    3.44245138996919
H        11.02515454079537   16.73356968401116    4.51589196101352
H        10.46517299638822   17.30094340726508    2.93672611273021
C        16.78169223582455   19.61152904208686    1.61019334497503
H        16.44483095435212   19.55323601919070    0.57121462906323
H        17.30606799822092   20.56050731136081    1.73767647170858
C        10.12373424345513   21.42251415882379    2.89420943041543
H         9.29364984585034   20.72563241588799    2.75110496085110
H         9.72351838255160   22.43571117622447    2.82135660254774
C        15.77929294685431   17.08914530452679    2.68450643558028
H        16.11554751564768   17.16652992497670    3.72915363832646
H        15.26724763198893   16.12956234231264    2.57814357992043
C        18.72785464016896   19.37573925474966    5.78159737432121
H        19.19214546253511   18.94023344582016    4.89373679458141
H        18.39104806010798   20.38333378135685    5.52721920063742
C        16.93600409760333   14.74590024619800    9.39170005546479
H        17.62993942298385   14.03280408148982    8.94185543057885
H        17.41430087275508   15.16161654692946   10.28286684262128
C        10.54869965149858   14.21452634192903    7.16811350057064
H        10.16470439124230   13.94348211513480    6.17910275063833
H         9.81324198089986   13.89351325178111    7.90734027362681
C        19.75276318947525   19.45203897964346    6.90961434165264
H        20.13022562202340   18.44914853450037    7.12561620968766
H        20.60004605281181   20.06768757937903    6.60082181737312
C        19.11921027765117   20.03691816244463    8.16789394533827
H        18.78303659924136   21.05566456613107    7.96228381845704
H        19.85764327042779   20.08295168977008    8.97176603517894
C        12.35126084760280   20.62846229922982   10.68218673004592
H        11.82364768015015   21.48011317578909   11.11605357184743
H        11.97625327036149   19.72245064456037   11.16505912883240
C        12.84227897224458   19.39127412411742    8.56066694056992
H        12.46442768637861   18.44946107168343    8.96818343960955
H        12.67907445244254   19.39385184496623    7.47282759553633
C        15.64966115497031   14.03620654430685    9.79690039335505
H        15.20026904723395   13.57083912096233    8.91654536624277
H        15.86738680844846   13.24692999044553   10.51944717888767
C        10.42251929049798   15.17670045104868    3.14694402545513
H        10.98973124554985   14.39061211656810    3.65142555411482
H         9.40020713835939   15.15391385191054    3.53067626643018
C        17.72681968574238   18.45149603797280    1.90064652353587
H        18.57929661384793   18.48300181289861    1.21868120483342
H        18.10596780394190   18.54389667529752    2.91972492376581
C        10.65074814369281   15.72570888650509    7.19983726709807
C        10.42748321749009   14.91716794925954    1.64445678818728
H         9.99820513418788   13.93649085148515    1.42945440367835
H         9.81087976780985   15.66794250015366    1.14489056577234
C        16.99003336922687   17.12494428191931    1.75829560580271
H        17.65864635835379   16.29578631780311    1.99790070544542
H        16.66065047567586   17.00066847485843    0.72274175102557
C        11.85274521602662   14.99007896564387    1.10732307311062
H        11.85123817321731   14.83269637869483    0.02660321098976
H        12.44948580141846   14.19315974864069    1.55846784039570
C        12.07777912280457   20.55431008686827    9.18327493497210
H        12.39380450597622   21.48506540354171    8.70736245838207
H        11.00814413003117   20.42956264717767    9.00372811330690

