37
CSD_code = KIPFOE | q = 0 | S = 0 | Stoichiometry = C14H21BrNi | MND = 8
Br        0.38371607057763    3.79107583610180    1.44276572069726
Ni        0.82732742395621    2.05609758169151    2.79824758605301
C         0.42104352688651   -1.20060353478006    3.09749174828406
C         1.23961216143979   -1.22233718643115    1.79565169023245
C         2.52632686343364   -0.39504489974301    1.90644205924565
C         2.35061050125029    1.08895302129218    1.71452944507853
C         2.88372311143759    2.02907363174015    2.56812688004916
C         0.03832843761527    0.18344513253906    3.51404186377707
C         0.65926678983454    0.93273101030847    4.62319823387252
C        -0.03096026161809    2.13346660117861    4.79080753084806
C        -0.99388438870775    2.21284305954337    3.72223071826405
C        -1.00346273894221    0.94639146443194    3.00619197575650
C         1.65495107301961    0.35046862774167    5.57261269117603
C         0.07942853231482    3.11568030239581    5.91544247972772
C        -2.08284223147788    3.22869454192732    3.63804150908302
C        -2.04196722771534    0.56224923467186    1.99804238156250
H         0.99910438450290   -1.68046308073549    3.89005759607797
H        -0.48712304723756   -1.79047786063436    2.94428483120756
H         0.63281851379615   -0.83234700909575    0.97473545567062
H         1.49451631029122   -2.25891688568902    1.56346203384478
H         3.20687382599963   -0.72033935615337    1.11245765032579
H         3.01343438597912   -0.59996714288884    2.86303125486735
H         2.10667047762101    1.38164010361041    0.68975472828569
H         3.12840875425956    3.02636267630739    2.21179989209515
H         3.41210632694088    1.70833949270059    3.46242519819636
H         1.13332579366415   -0.28045741489071    6.29619524152724
H         2.39314120807171   -0.26636705110794    5.06353378830115
H         2.17775649821320    1.13133895466790    6.12149827524184
H        -0.72601403412937    2.94348186646942    6.63262828421137
H         1.02836701888050    3.01405327386382    6.43736012525612
H        -0.00505968497037    4.13905528868805    5.55362020636986
H        -2.88017857707030    2.93866510820342    4.32676944320590
H        -1.72793154244972    4.21707293074811    3.92159075386890
H        -2.49448526613270    3.28604439413446    2.63336099372944
H        -1.84445009211342   -0.42817142504175    1.59526360993649
H        -3.02617888721632    0.55815861369974    2.46996921850898
H        -2.07072001020520    1.27081009853427    1.17033690556385

