81
CSD_code = KIPKIG | q = 0 | S = 0 | Stoichiometry = C39H37ClNiP2S | MND = 4
Ni        0.99410712566711    2.42475360221432    4.59278679104024
Cl        1.06724447134690    4.52356788860381    4.76699311715420
S         1.15881609068660   -2.28169974725576    7.47400428647086
P         0.74102050775485    0.35379728104162    4.02030054121966
P        -0.02316937901524    1.81901422024419    6.57131877373837
C         1.18031282816411   -1.92383639571811    5.78594065035172
H         1.48299568072724   -2.68695981972743    5.09587116073325
C         0.79866671279678   -0.64483394245443    5.53173467640337
C         0.47752336234890    0.07542490331977    6.72791405006921
C         0.62943964340807   -0.68259562816953    7.84388945784052
H         0.47058667820920   -0.40274685865423    8.86702404529511
C        -1.02652566481090    0.27523371127913    3.56686163286257
C        -1.77347592350784   -0.89073829505076    3.37203157607549
C        -3.12565663034975   -0.76390066530609    3.07627450992957
H        -3.71052544029367   -1.66048258553189    2.92512943862769
C        -3.73538094311524    0.47320165291910    2.97600396964407
H        -4.78790266562107    0.53680317646898    2.74345287806773
C        -2.99650604040083    1.62563272184482    3.18088301852300
H        -3.46287181947292    2.59657506839432    3.11513268728231
C        -1.65413524437866    1.51909366233795    3.48252480608157
H        -1.07060604264787    2.42647236797107    3.66675507280914
C        -1.17886354306515   -2.25837618061669    3.49828125716320
H        -1.28927687023550   -2.61730789892092    4.52273854548807
H        -0.12082661767543   -2.25376883549533    3.24909368758485
H        -1.69225727049214   -2.95859680987361    2.84246386680480
C         1.64032440178245   -0.52369634026450    2.70905290099689
C         2.99167423207899   -0.85230641866353    2.85687468891820
C         3.66945157361752   -1.38989282902682    1.77020185032580
H         4.71215767283519   -1.65159248057670    1.88158260318422
C         3.04345010114298   -1.57388174663418    0.55175804124406
H         3.59415429344582   -1.98495589879388   -0.28110191183973
C         1.71602537280239   -1.21043000475883    0.39800684622424
H         1.22484949571397   -1.33031850718668   -0.55587656148410
C         1.02371831787844   -0.68154254762200    1.46833257779217
H        -0.00828979793586   -0.38368784600228    1.34577878406472
C         3.71838622877523   -0.63009985768900    4.14484632134999
H         3.23320423195705    0.15572696951945    4.72265066868204
H         4.74821881412457   -0.33948903087698    3.95063749058774
H         3.73347941788802   -1.53907293101256    4.74697793584673
C        -1.84329897754931    1.64774379019152    6.52198261744682
C        -2.61815630015576    2.81479438083634    6.47097369831816
C        -3.99688058230894    2.69359198367115    6.36272286166078
H        -4.60040660993757    3.58953222818537    6.32354581510309
C        -4.60714508461963    1.45372528611880    6.30112994314482
H        -5.68126236338017    1.38371720906885    6.21147830876934
C        -3.83803739346794    0.30509863801956    6.35639415029562
H        -4.30467584005339   -0.66796156236099    6.31208883070106
C        -2.46387516005204    0.40442698141875    6.46527029576842
H        -1.87201728210411   -0.49895958750849    6.50438899010321
C        -1.97903610901527    4.16025438535218    6.55939980874292
H        -1.69453097484643    4.37611470703386    7.59055426666304
H        -2.65991040147162    4.93916451713986    6.22432152563161
H        -1.06989967612801    4.21014282453482    5.95487746703013
C         0.23844821122324    2.34824120065665    8.30360143081067
C         1.50862921464118    2.78839608658977    8.69010117391703
C         1.71116546322437    3.17935684210360   10.00613903578004
H         2.68870211763833    3.52620802159405   10.30941573560172
C         0.68263628286537    3.13350187503722   10.93024575922035
H         0.85808215087437    3.44530371528633   11.94934305660070
C        -0.56997982450834    2.68730383306828   10.54616068943006
H        -1.37698484105277    2.64427517522388   11.26274602535863
C        -0.79051098523127    2.29842527895869    9.23765064425258
H        -1.77052650360534    1.95208576972925    8.94156805207004
C         2.62139918568158    2.82381086846807    7.69567898951420
H         2.85370486816269    1.81001465475163    7.35923257515491
H         3.52147706986470    3.26048143341912    8.12096564724988
H         2.31892820274889    3.42155092253936    6.82968391760277
C         1.84836057576315    2.65921617301513    2.90477541991229
C         3.24185939211284    2.75096265720258    2.88635847168100
C         3.90441247980453    2.78445514783671    1.66664259138319
H         4.98396364572008    2.85050124444282    1.66070783262191
C         3.20716582960858    2.73819050341961    0.47422160085667
H         3.73860003204519    2.75536850029516   -0.46618718415284
C         1.82710426152474    2.68305737870193    0.49489533355337
H         1.26632555419045    2.66298034424705   -0.42868818763976
C         1.14938132968006    2.64202246732869    1.70375002826458
H         0.06751703591345    2.60169839151432    1.68264479331522
C         4.01840502907595    2.86532955736300    4.16765031721615
H         4.97038381740107    2.34198949271801    4.10798821009346
H         3.42854300319992    2.46341315255425    5.00013958145861
H         4.21380279409488    3.91718640617415    4.37841314639075

