88
CSD_code = KIPMOO | q = 0 | S = 0 | Stoichiometry = C41H34N2O6P2PdS2 | MND = 4
Pd        6.61437230305573    5.55346321477836   18.59633334200961
S         5.13892556090320    7.78986192204438   20.64610842667369
S         7.63128559676618    8.22153040286573   18.24355182360029
P         6.67141613457714    3.73245264891752   19.88730597578623
P         7.18036463772939    4.45108953621313   16.73382477764018
O         4.07203054041303    7.21737765588340   21.43547358360284
O         4.70304751080482    8.49972003373137   19.48191428057856
O         8.25075148857525    5.83043017051138   20.82329371157646
O         7.32679938538689    9.08896578523265   19.34192380385197
O         8.73818561348880    7.31426397988432   18.45352217704813
O         5.74996000202370    6.57147375587942   15.62302076140771
N         6.19237506090419    6.58133907227180   20.28684206552733
N         6.41330103977225    7.32289432635142   17.64324634146433
C         7.96723587874395    2.48225347510130   19.52681543405651
H         8.92345939042531    2.95262530615949   19.77755563074379
H         7.81978904963045    1.61683821236465   20.18029592389601
C         7.97457292233640    2.04806909969874   18.06170490426259
H         8.64604027110036    1.18905709634802   17.96165618408271
H         6.97274348325276    1.72156309890917   17.76604652695241
C         8.45021540520606    3.14972630574796   17.11659975219813
H         8.78634157058728    2.71148006197864   16.17135353277774
H         9.30144980989598    3.67999332029984   17.55795348599832
C         5.80803971399671    3.50658796740145   16.01202094903538
C         4.52508183073865    3.94904802148728   16.32030886316827
H         4.41833694703504    4.85871858609457   16.90650101733492
C         3.42189148696349    3.26362003940086   15.84661981830139
H         2.42726642996824    3.61170725177068   16.08026711303549
C         3.59244480095347    2.12897225845922   15.06988776500188
H         2.73200400883796    1.58949813450823   14.70227584993915
C         4.86769993242830    1.68852611487991   14.75537047554255
H         4.99981015435476    0.80901836987363   14.14188603209990
C         5.97566866745333    2.37374298079436   15.22229764731883
H         6.96685856131977    2.02810859569241   14.96598777720791
C         8.09090992773165    5.23828404156856   15.36420298256149
C         7.70313075848917    5.12596504027251   14.03520490330297
H         6.82843813261670    4.54692789832526   13.78027618694286
C         8.41850178345001    5.78844244369590   13.05360539559417
H         8.11329442957541    5.70597089119772   12.02058094602019
C         9.51394098793805    6.56661559351759   13.39103794580515
H        10.06095836307227    7.09201240526783   12.62194152905142
C         9.90137916936846    6.67889758392223   14.71618729103025
H        10.74935813047224    7.29225642560394   14.98328783148914
C         9.19502982877097    6.01487745705681   15.70340585785292
H         9.47099000727461    6.12658157601876   16.74500016880327
C         5.07043310553924    2.90454963510979   19.58026786957921
C         3.98713021375450    3.75776162115557   19.36250422318094
H         4.14578259652812    4.84006736203761   19.35318316135012
C         2.71918490131297    3.24003953217428   19.17137905813486
H         1.88352458591731    3.90660613516249   19.02051093525144
C         2.52356317564378    1.86806758478002   19.17096157248482
H         1.53621896973054    1.46138958838274   19.01038092293033
C         3.59476296967082    1.01718031013482   19.38198503236177
H         3.44278119008716   -0.05231055527896   19.38599746727283
C         4.86181577140875    1.53121918985662   19.59948180251439
H         5.68472932378639    0.85681135854590   19.78515830851775
C         6.62269053105152    3.82494127175685   21.70725043637434
C         5.51927173833176    4.43040423428438   22.30342580392550
H         4.70006716962104    4.79589591699508   21.70108064741343
C         5.48069097631329    4.61152730422956   23.67401024641669
H         4.62803113499351    5.10284968559891   24.11735791238900
C         6.53344154819681    4.18072832093283   24.46383310662762
H         6.50567368276482    4.32720302994361   25.53364425672667
C         7.62810542737543    3.56951892984733   23.87558567694588
H         8.45445178830552    3.23669890251373   24.48703494153141
C         7.67969180072091    3.39759641353100   22.50391201026637
H         8.55680763779154    2.95599405422704   22.05787406550211
C         7.33897198626171    6.65227346735076   20.95922177668249
C         7.36860095208406    7.80639938873255   21.89441070482671
C         8.39021254194767    8.14403845362555   22.76502253779102
H         9.25995762949937    7.51007598393302   22.84161528647996
C         8.26004495104862    9.30486404110051   23.51347365642068
H         9.04558641204613    9.59115326975462   24.19765843746444
C         7.13671035181549   10.10855310781346   23.38871445658795
H         7.05831246707426   11.01315152752428   23.97375474877859
C         6.10939904812796    9.76630225143100   22.51510663679332
H         5.23171170432329   10.38402118789258   22.40837968956502
C         6.25181374685612    8.61899135333950   21.77431469552167
C         6.31435192963291    7.41253501099858   16.31981843426356
C         7.06518497025078    8.58053458922943   15.77766559603056
C         7.06646793309281    9.03979536637693   14.47150511620805
H         6.42307488350501    8.57806926109427   13.73907652373296
C         7.90996919081443   10.09194307124135   14.14769410173349
H         7.92768626340222   10.47108292197777   13.13663978927734
C         8.73459191101394   10.66365341610176   15.10588427433402
H         9.38492586862094   11.48119945321185   14.83248194535675
C         8.73889155820202   10.19295082796782   16.41464771786748
H         9.38058496154239   10.62430646779615   17.16672063613296
C         7.89910179163696    9.14931759760705   16.72777698812237

