41
CSD_code = KIPVOX | q = 0 | S = 0 | Stoichiometry = C17H17ClCuN3OS | MND = 4
Cu        4.24626391381864    6.49830493927186    6.15881315726571
S         4.13160611479190    6.58358627309277    8.26627560871488
Cl        6.26873359588215    7.20700188519915    6.42429426177413
N         1.81429770321503    5.72509343635053    7.27009553502623
O         4.47671237838363    6.46012534578555    4.40896493560022
N         2.46232452993568    5.89910722239339    6.10457298035519
N         1.91801695300584    5.78119767530331    9.55732058751733
C         1.80711141850696    5.63838195832715    5.00338268846496
H         0.78888456257541    5.30900636121004    5.16748045587547
C         2.46740488663835    5.99059315567661    8.35902928595285
C         2.30008736174793    5.74285680542954    3.69035708232204
C         0.50671585528323    5.47825477377027    9.67923813954520
H         0.39679565071929    4.68228236093319   10.42296735767117
H         0.14467608182665    5.12520231834971    8.71500813051447
C         0.33410695442914    7.24105055953860   11.44634031475821
H         0.17731144804547    6.49863727752818   12.23251394646712
H        -0.17231011023902    8.15941633395959   11.74677792594153
C         1.46057143092956    5.42878701878064    2.55919115740073
C         2.52400663023536    6.22719049690546   10.79017576657070
H         3.58651183002115    6.40319744207195   10.62325103446702
H         2.40757207572794    5.42821884498764   11.53007241222797
C        -0.25439734247524    6.72384078949535   10.13562193729910
H        -1.31014199731347    6.48079603398786   10.26030498119069
H        -0.16806845205787    7.49203044410472    9.36511837662718
C         1.99842364436902    5.52725499669058    1.25224814299013
C         1.83044351219510    7.49799277668790   11.28248877989349
H         1.99237260999105    8.29324218069438   10.55285914828865
H         2.27164522879324    7.80902762277714   12.22945226682589
C         0.11920682407774    5.02555092323907    2.67665198353145
H        -0.34307091671503    4.93904957871695    3.64722454155656
C         4.13230094453691    6.24002011888013    2.14168362396841
H         5.15748772232996    6.55495911248881    2.02527578759408
C        -0.64126878419204    4.73320351963295    1.57121603874523
H        -1.66922050137290    4.42609091547558    1.69630574706440
C         3.64047878963297    6.15351327925686    3.47818861178005
C         3.34615244117254    5.93775321337337    1.08214302992271
H         3.73894247087797    6.00748385267953    0.07785514487965
C        -0.10186308700205    4.82856184741323    0.28751068934983
H        -0.71040773753727    4.59444377283758   -0.57271044396835
C         1.20145736418517    5.22197245227546    0.13605302375329
H         1.63972600102191    5.30462008443326   -0.84801417572285

