63
CSD_code = KIPVAJ | q = 0 | S = 0 | Stoichiometry = C34H20Br4N2NiO2 | MND = 4
Br        0.01552478602948    6.61526413686020    6.04118473640504
Ni        2.83360075383929    6.12133654314001    6.66811111368639
Br       -0.07931825815908   11.62769830632473    3.39645041464597
O         2.67055693533462    5.39908089348464    8.37301044376427
N         2.43929078872193    7.84339314053154    7.42352021864269
C         3.00572845675199    5.94302262507501    9.47618263529210
C         3.60009472023052    7.85799451716257   10.94000450183973
C         2.74279544709021    8.21220801750341    8.63785573699493
H         2.55386299435803    9.25245961743658    8.90088987656308
C         3.16013933648881    7.34948211006014    9.66873301569583
C         1.85323926760463    8.74732273712868    6.54408075972739
C         3.19841539242706    5.08199859820983   10.60530005978431
H         3.03852023597353    4.02612882396288   10.44220008486052
C         3.79949008911257    6.95772833070656   12.01429972198492
C         2.36161050750558   10.03161771643550    6.34097183791308
H         3.23991073163866   10.33851014926178    6.88865742032252
C         0.15412526845166    9.20384286556863    4.86688568662174
H        -0.70059092785085    8.87805381549388    4.29535928054149
C         0.73637730445937    8.36182702583910    5.79064200978708
C         0.69521161856760   10.46702068544766    4.68590067920653
C         4.22640528019606    7.43743709894757   13.26225642441910
H         4.36716272165271    6.73081383792037   14.06751185710377
C         4.46633260044704    8.77310659048603   13.45815595471192
H         4.79304785460745    9.13759331770783   14.42021665504812
C         3.57328265237599    5.56948154689538   11.80944660979095
H         3.72428655349577    4.89884394863943   12.64375882050856
C         3.87976761683051    9.21576568569807   11.16681934191069
H         3.78570565884001    9.93077349934467   10.36392334797539
C         1.79312718369565   10.88761465166594    5.41869424419889
H         2.20691180527876   11.87141878229077    5.26126817482502
C         4.29654722782388    9.66284957443876   12.39685980611436
H         4.50168667115331   10.71323051449723   12.54322424401410
Br        5.65146086642054    5.62891273667607    7.29496020784272
Br        5.75190452795316    0.61488994385251    9.93624661493832
O         2.99661301573139    6.84362451336727    4.96328901282166
N         3.22816988996383    4.39938420199622    5.91247143584724
C         2.66123606469503    6.29985764830751    3.86010016177355
C         2.06742862697711    4.38503098119141    2.39590414353843
C         2.92482080530498    4.03066278944965    4.69805284624360
H         3.11424316318164    2.99055305645908    4.43480236815521
C         2.50714710153705    4.89340219436799    3.66731412294854
C         3.81512479659076    3.49561823057373    6.79148817828287
C         2.46809279532653    7.16111132265303    2.73124274268561
H         2.62765298543411    8.21699133539148    2.89460210578163
C         1.86767618694429    5.28549752403122    1.32183663285506
C         3.30808679703202    2.21068792547126    6.99396390162872
H         2.42993555048258    1.90324482993284    6.44634759891544
C         5.51525316849455    3.03963984919049    8.46781966023651
H         6.36987808790976    3.36588132216071    9.03922420424067
C         4.93185595395889    3.88171375396308    7.54483126476989
C         4.97555047781043    1.77577470789670    8.64808965759933
C         1.44110648942358    4.80592978472180    0.07371003787939
H         1.30007373836114    5.51271771547787   -0.73135161270452
C         1.20190933941784    3.47019145213179   -0.12260148119816
H         0.87551773335332    3.10581025674268   -1.08481110850375
C         2.09326287913462    6.67379468804655    1.52702336435360
H         1.94186845147069    7.34458648206023    0.69290788343536
C         1.78842902119781    3.02718974370001    2.16868508887135
H         1.88277329530198    2.31200504290991    2.97139130782259
C         3.87777990663497    1.35460275022222    7.91541113299771
H         3.46509407710879    0.37024179816215    8.07223924594666
C         1.37203035139414    2.58023994360677    0.93846560686808
H         1.16747458048262    1.52979177112380    0.79176795822753

