66
CSD_code = KIPVAI | q = 0 | S = 0 | Stoichiometry = C29H28NO6PW | MND = 6
C         3.58204384679090   13.92707859288769   -1.42740543114757
C         4.75857440567233   14.91003060720647   -1.27425446101457
H         5.32763725841464   14.92205781862131   -0.34799500272937
C         5.56947870796089   14.74554438085574   -2.56243048944236
C         6.05736442607928   13.29735594066532   -2.46863335118693
C         5.00691765295617   12.49537341938406   -2.66633959862526
C         3.78559977961533   13.38746731533037   -2.86582056400824
C         4.45589290007403   14.57232511425975   -3.62795307377857
C         3.52279777962415   15.77305978097080   -3.91435321133878
H         2.79211168968846   15.40238106949286   -4.65478891975812
C         3.19253478621918   12.96628755073570   -0.36702573180822
C         4.13231017993551   12.27844164990943    0.39229346845212
H         5.18484376021359   12.43229120770857    0.20567086512479
C         3.72295449019944   11.40196413252622    1.38098622283176
H         4.46058922921337   10.87640117203450    1.96962977007417
C         2.37438144972609   11.20108034523624    1.62263601618081
H         2.05928778383283   10.52049747219105    2.39939183262117
C         1.43110415746497   11.88332628116721    0.87262860213976
H         0.37782182835080   11.73815760667974    1.06293075722892
C         1.83914749080809   12.76312761293596   -0.11226593941133
H         1.10864533235550   13.31077095670206   -0.69453558670256
C         6.64049249873011   15.79543316280491   -2.76682921007550
H         7.38298434433632   15.72654057533661   -1.97487624201367
H         6.20543385251499   16.78978026564718   -2.73945287102352
H         7.14103171458286   15.65807638970046   -3.72242744522570
C         7.46657866761039   12.95408906728301   -2.13959545397446
H         7.74693419243273   13.38379668389870   -1.17742785463067
H         8.14431785851720   13.35544027938265   -2.89233554766030
H         7.60316969100785   11.87717363868556   -2.08880219828176
C         4.91267517067302   11.01154209225689   -2.64573986919906
H         5.88104136517449   10.56097131281122   -2.44583848389025
H         4.54972783923092   10.64287143701101   -3.60503905706886
H         4.21294861679628   10.68710108739637   -1.87573144292191
C         2.55436556171144   12.75943765480171   -3.48018197764052
H         1.74857978054731   13.48956325434893   -3.53813124216028
H         2.21261162137194   11.92753100543470   -2.86845597681731
H         2.76703447640575   12.39089237032567   -4.48105714323068
C         5.00611810423404   14.13471805321163   -4.98975941298805
H         5.59017550638119   13.22352603103841   -4.90754066361883
H         5.64185087655504   14.90988638779370   -5.40695705851692
H         4.19181149710683   13.96092702007749   -5.68948152632421
C         4.20659948997950   16.95371211742565   -4.54821290606432
C         5.00479154778062   18.13729420083897   -6.18419512798055
H         5.28912769757814   18.29409077256683   -7.20555526729642
C         5.07104796056121   18.93347200824169   -5.08534286100209
H         5.44180220153251   19.93632303842200   -5.03468522422665
C         4.54292173317482   18.16618406197752   -4.01846128218247
H         4.42306239102174   18.47466385271621   -2.99912464395327
C         1.53286415898847   16.90326374666461   -3.05758424914429
H         1.02984774936124   17.15522659179443   -2.12264524306796
H         0.87617528815873   16.24786814976500   -3.64127981262335
H         1.70045785411740   17.82017408515160   -3.62844100859546
C         1.60587033598909   17.54154009701972    2.51415499523941
C         2.63314692447589   15.06366576213379    1.89686365417313
C         0.38622508646454   16.06368847390758    0.46691391756278
C         1.91556157095387   18.45302889274825   -0.10000341197591
C         4.10168141743508   17.34213530975089    1.21208409803533
N         2.79654165867984   16.26232543311055   -2.76013073356890
O         4.47508041985983   16.94100191138895   -5.87094297616331
O         1.24784914418410   18.02188403632017    3.48753621799374
O         2.87579912721943   14.23027495444210    2.63689266231167
O        -0.67687635316249   15.68340846993079    0.29356696692912
O         1.77032927517213   19.48829478526733   -0.56030283772802
O         5.16490300538132   17.69136785421712    1.43641254178546
P         3.10131603385343   15.67651657001573   -1.22791210965533
W         2.24245211062534   16.71517702764145    0.83138914463533

