37
CSD_code = KIPVEK | q = 0 | S = 0 | Stoichiometry = C16H16Cl2N2Pt | MND = 6
Pt       -0.82555262848906    3.79187930248153    2.43360391250918
Cl        1.31811651436051    3.70678237035708    1.49936965711851
N        -1.36080565570867    1.94194887500841    1.19676232905576
C        -1.87973497743177    1.99274689106818   -0.01415141977773
C        -2.17910763626101    0.81658246640266   -0.72332352244050
C        -1.93257860779621   -0.40611726660147   -0.15408625254250
C        -1.38053834925246   -0.46729590671030    1.13683607242013
C        -1.10932006832757    0.76135381458541    1.77473392811562
C        -1.09199016621802   -1.68675320740661    1.81043691899063
C        -2.12974704686324    3.34290160423964   -0.58700490696549
C        -1.10876692734767    5.76169627440624    1.78570621711274
H        -2.60236710397758    0.89002748119947   -1.71315447674412
H        -2.15621700497866   -1.32187599415676   -0.68198066876599
H        -1.30905870370033   -2.61394877362566    1.30089616477352
H        -2.57007749772251    3.28451603716275   -1.57810742020032
H        -1.18708217101595    3.88899764872689   -0.63878339420645
H        -2.79630309418291    3.89472257040544    0.07674969655286
H        -0.47678525156527    6.01846976816970    0.94000307780920
H        -2.15869633553669    6.01816490483159    1.67353358015977
Cl       -2.96966595396661    3.70645957550919    3.36799321869249
N        -0.29186281767828    1.94194173619835    3.67106804217929
C        -0.54399789564120    5.76175285450645    3.08212774232605
C        -0.54326856818903    0.76135208922423    3.09305783897441
C        -0.56052606416222   -1.68675497038465    3.05731819531530
C         0.22727501322940    1.99274006571093    4.88189556603194
H        -1.17611432465289    6.01820361959385    3.92786516985598
H         0.50587573196340    6.01861336600046    3.19436739353280
C        -0.27196546433611   -0.46729840554521    3.73091727598041
H        -0.34344715933289   -2.61395082703586    3.56685214783038
C         0.52673977789339    0.81657542168787    5.59102506712359
C         0.47759157684795    3.34290302358703    5.45462479787136
C         0.28012382095220   -0.40612268228701    5.02182006846590
H         0.95009270337525    0.89001985110874    6.58081514052966
H         0.91807959240770    3.28452600029995    6.44566204765714
H        -0.46499524827846    3.88910989667726    5.50654695567742
H         1.14410838874772    3.89460994487075    4.79070091986278
H         0.50376960283574   -1.32187942026636    5.54970291911844

