54
CSD_code = KIPWEL | q = 0 | S = 0 | Stoichiometry = C27H23MoO2P | MND = 10
Mo        2.72775142239448    1.64703501598073    1.11295120870625
P         4.56861957721332    2.59153693764114   -0.05900682895350
O         4.96994602199626    0.97729980795562    3.09975111892411
O         1.97354320220741   -1.20479504638059    2.10338689840227
C         4.16318215521074    1.22846990612300    2.31997737683788
C         4.19905572326614    3.85981539435607   -1.31392091327589
C         2.98614408363732    3.80251948089610   -1.98841127477405
C         2.67678397868352    4.74308310082737   -2.95439421883397
C         3.57925987949632    5.75105361419041   -3.25107645203357
C         4.79352273915688    5.81088576318578   -2.58538500275713
C         5.10703149519814    4.86959825611427   -1.62220203340159
C         5.69166775467255    3.53756387302036    1.01664254423487
C         5.08826199318131    4.53624482927346    1.77735199114178
C         5.83325552256511    5.29788002167518    2.65519920154832
C         7.19360342468186    5.06503945367266    2.78797195447542
C         7.80131325042840    4.08130202270161    2.02829483884220
C         7.05840733236182    3.32103132010614    1.14026915819370
C         5.71315513662270    1.50576265140092   -0.96650838919768
C         5.90720666711386    1.58690148187869   -2.34123484472866
C         6.74926417862700    0.69065741649054   -2.97753207441401
C         7.39937270696540   -0.29316654801009   -2.25224590480162
C         7.20587118791569   -0.38424248731055   -0.88241435348791
C         6.36272884625406    0.50505215102093   -0.24222446195665
C         1.40710108308979    3.58451707271306    1.07512526354577
C         1.72401044349258    3.24199521963432    2.41655206949121
C         1.11960295371469    1.98971336797523    2.69315608420580
C         0.46010364046367    1.55812403060461    1.52076244909179
C         0.63166550093021    2.54958139258875    0.52988831380536
C         2.65148780853840    0.46043618947581   -0.83584812237046
C         3.21949148341960   -0.39120577728994    0.13959599912004
C         2.48167784583555   -0.46957410685885    1.32520339933532
H         2.29003242450911    3.01097137956264   -1.74871172496870
H         1.73147318396230    4.69264985463708   -3.47530839559100
H         3.33758251062861    6.48980155758284   -4.00095893048144
H         5.49909027034397    6.59487797379064   -2.81902217872262
H         6.05593661644721    4.91402188254062   -1.10550636012222
H         4.02522043720471    4.70968318960788    1.66340643590471
H         5.35716584580926    6.07135193967724    3.24034724516121
H         7.77766895724246    5.65152973829047    3.48156720442587
H         8.86219859356105    3.90169849290050    2.12541543759936
H         7.54799721275074    2.56359893354231    0.54507976325446
H         5.40123490734063    2.35100920365252   -2.91476304598856
H         6.89661559550192    0.76156592196566   -4.04534408592046
H         8.05462300046981   -0.99049075605230   -2.75259471029775
H         7.70957256290431   -1.15248304502153   -0.31401012729756
H         6.20897292672834    0.43815568125202    0.82833755413432
H         1.60826242800624    4.53856893262733    0.60127428607989
H         2.14717235289147    3.90975121049010    3.15784067632478
H         1.04908352958691    1.52297839491414    3.66493735264816
H        -0.20013400128832    0.70314395873482    1.45000249244873
H         0.13437329147910    2.57242725565295   -0.43037183084275
H         1.59277890007969    0.32255255383860   -1.04419613821698
H         3.23725645900047    0.61603369190207   -1.73894131169820
H         4.20933295545602   -0.82911375191779    0.03684539753872

