52
CSD_code = KIQDIZ | q = 0 | S = 0 | Stoichiometry = C21H22NO6PW | MND = 6
C        13.59158925043060    6.16096958771707   10.05772287293665
C        15.06893748676553    5.82081734460526    9.76276595314963
C        15.77091413570955    6.06831928387991   11.08847558456175
C        14.96988921958969    6.66897183443474   11.97386353737963
C        13.60929960137361    6.85854238224622   11.42498922412885
C        15.31556723123536    4.42928158672110    9.19827162060735
H        16.37362927823557    4.29447322488392    8.98812270336741
H        14.76561600266080    4.27913824686636    8.27311256171583
H        15.00649413865057    3.67490013677604    9.91709462591295
C        17.19763084016116    5.67152772328552   11.26689817516251
H        17.65102174449830    6.20410868699897   12.09804604398543
H        17.77492860866780    5.88063256288815   10.36814192467319
H        17.27003531817158    4.60238491609078   11.46908620345608
C        15.29039024911910    7.12327554351388   13.35722859798553
H        16.35616545174586    7.06512081847867   13.55737485846239
H        14.76920915460421    6.50789621561560   14.09014422911041
H        14.96464554656023    8.15403528241558   13.48945800437198
C        12.41723344994471    6.78772051962916   12.34209106376268
H        12.33097487355460    5.79223864187471   12.77842302077631
H        11.50287403391332    6.99996365988612   11.78862299720595
H        12.50506933871996    7.51408822142755   13.14740807636031
C        15.54899350999313    6.94582967875309    8.80617272766249
H        16.64113820228901    6.95730696502494    8.72781487384938
C        15.56847991810318    9.41157335545321    8.93532321200152
H        16.62802450508708    9.52290534791998    9.17869412044966
H        15.01915901180598   10.23185670188727    9.39784633594357
H        15.45669204759725    9.47897718769142    7.84774589660239
C        14.95924967896905    6.81273152862944    7.44063263041799
C        15.44170709615987    6.31777737749929    6.26571144312682
H        16.42210437597121    5.92593862132711    6.08816704036705
C        14.38322584601465    6.42553993447956    5.32872688283503
H        14.40452556830882    6.13407148778418    4.29888755898215
C        13.34130367568317    6.97905908503526    6.00157720130958
H        12.34983052824299    7.24680818761470    5.69422608515762
C        10.19014956290780   10.61256259587693    8.40385483760482
C        12.44347595095405   11.01926269058476   10.00922246417657
C        12.65148856960470    9.87617311438956    7.43577537637546
C        10.76328979721804    7.89902430301196    8.15898894133824
C        10.47954606772203    9.13912477085783   10.70510921872453
C        12.49056311495422    5.21097508115277    9.66989465430003
H        12.57686018617436    4.27330936464340   10.21840531285716
H        12.52029589171377    4.99284465831712    8.60385692852465
H        11.52094617602309    5.65264096625389    9.89414625911387
N        15.08985519765914    8.15814276244005    9.47817613099946
O        13.67996158589015    7.21688620256905    7.28236358284679
O         9.36196690277101   11.29403963173573    8.00499617624628
O        12.85527819346856   11.95886167498028   10.51336072406153
O        13.15108752822134   10.19673983462851    6.45900700210804
O        10.23825296889093    7.06104025932471    7.58659322028802
O         9.73783230425728    9.08660551344657   11.57308789021745
P        13.46034788733221    7.97419208182761    9.91592494127826
W        11.62485319570663    9.44139261463053    9.09276845116387

