111
CSD_code = KIQDIX | q = 0 | S = 0 | Stoichiometry = C56H50Cl2P2Pt | MND = 4
Pt        1.11870562327054    6.43821599337122    0.00003245455153
Cl        2.88523995780668    7.96317482099539   -0.21702365363934
P         0.88676297028937    6.81683123687502    2.26553178808437
C        -0.54503950067638    7.83865487285256    2.71673260851209
C        -1.75795554310740    7.19491670161037    2.95624233865485
C        -2.90737276716647    7.91972380355476    3.23490074701713
C        -2.75464587826334    9.27053441316472    3.53940041137939
C        -1.56880013190544    9.91933122484970    3.26019518196010
C        -0.49910559222478    9.23878924655784    2.68650642058878
C         0.51127527929921    9.98394763635536    1.86351884418050
C        -0.16530412480499   10.60713682540275    0.59265104864880
C        -1.47857862812584    9.93299711601894    0.31209151455418
C        -1.52067386653229    8.57899726475531    0.00252335209841
C        -2.65891728726606    7.83543089906615    0.23515511308998
C        -3.78602708241340    8.43080552391199    0.79132945194799
C        -3.82884233398676    9.81919911379620    0.83273289143351
C        -2.68692941021193   10.56255266493025    0.59126012817146
C        -4.77163488980867    7.58564189808522    1.54411369721011
C        -4.27644692346773    7.34182635577991    3.02123527853971
C         0.68377836896600    5.35186379092845    3.33464617773824
C         0.24674901349070    5.50534323625931    4.64748632056525
C         0.17698663027893    4.40931491773111    5.48555366608480
C         0.55731965255184    3.15666627061755    5.02911714367765
C         1.01298427758624    3.00391153618070    3.73153612174237
C         1.08007922774201    4.09920627620710    2.88873737953714
C         2.30427435689325    7.50900372674548    3.18602039342010
C         3.55514540157569    6.97814760184922    2.88985990596313
C         4.67240403688703    7.39229436376009    3.58943479059467
C         4.54664866864458    8.33275015485484    4.59844011911662
C         3.30004353930068    8.84976681502461    4.90887815450810
C         2.17912970925700    8.43893488281103    4.20985117961525
H        -1.81372564551747    6.12263006041225    2.82637483300848
H        -3.60239450926316    9.83878474205100    3.89380586234069
H        -1.50597024377314   10.99127775234421    3.38195000970305
H         1.29390294600963    9.29338937960879    1.53933693269010
H         0.98425559911176   10.78448967730548    2.43518515501581
H        -0.33647028350895   11.67230158706968    0.75640386846224
H         0.53061870321049   10.50117441258976   -0.24055092736715
H        -0.60639685101239    8.06727287696791   -0.30161546329487
H        -2.63265376276950    6.76462254407534    0.09697784153183
H        -4.73044840666800   10.31931194164706    1.15805913876362
H        -2.71263876988727   11.63458170019709    0.73030055591482
H        -4.88099609340482    6.61964392012793    1.05075810995674
H        -5.74853172289474    8.06943762818341    1.57410211322818
H        -4.98293556168944    7.80782909320252    3.70942652344289
H        -4.26463227253452    6.26925274771075    3.21571296967980
H        -0.04451247910801    6.48205424213941    5.00801745189010
H        -0.17219876354033    4.53193989340516    6.50061876784036
H         0.49958652643902    2.30249823846420    5.68767075836080
H         1.31649521576776    2.03087233143465    3.37406745925640
H         1.42365583857876    3.98043856644945    1.87206600368266
H         3.65007603080730    6.24418284870722    2.10204845704456
H         5.64135961748282    6.98133690727486    3.34688523591285
H         5.41859024122545    8.66152517600348    5.14467647850604
H         3.19870141288198    9.57779166849974    5.70092624510074
H         1.21054482209124    8.84883107956272    4.45820070219958
Cl       -0.64752640974600    4.91290989895226    0.21687357476396
P         1.35161501785049    6.05953371369111   -2.26551446569250
C         2.78336033946571    5.03764801737904   -2.71669863032400
C         3.99625753113262    5.68139051829439   -2.95620362165577
C         5.14565660202322    4.95659224975934   -3.23489358327073
C         4.99291748609757    3.60579171868367   -3.53945109252271
C         3.80709468646215    2.95697983078495   -3.26020665085554
C         2.73742336185014    3.63751270170761   -2.68646482080754
C         1.72697110112297    2.89234953294342   -1.86355682200585
C         2.40353237267355    2.26915550384338   -0.59269010076096
C         3.71679906305443    2.94330532479662   -0.31214155360249
C         3.75887270306815    4.29731043974134   -0.00260757467495
C         4.89711275942621    5.04088547012764   -0.23521944361156
C         6.02424320206712    4.44552102037260   -0.79135722590481
C         6.06706878036946    3.05712391913284   -0.83275357706652
C         4.92516391623503    2.31375822551634   -0.59128122246550
H         4.95089096654970    1.24173153256871   -0.73033915889950
H         6.96867876310728    2.55701627926868   -1.15808017940002
C         7.00988733706717    5.29069418449726   -1.54408410646701
C         6.51471385301260    5.53450074244568   -3.02121136650394
H         7.22120562913567    5.06851403844684   -3.70941101751188
H         6.50288490875386    6.60707936425063   -3.21567486513419
H         7.11922497346208    6.25668779311335   -1.05071692604608
H         7.98678334831590    4.80689432110709   -1.57404251565100
H         4.87086012847423    6.11168045769011   -0.09695865128191
H         2.84460982918363    4.80902177748298    0.30160183764999
H         2.57469603694361    1.20398999299679   -0.75643986950846
H         1.70759479612859    2.37513606779662    0.24049839097047
H         0.94435625539790    3.58291586634975   -1.53936162498799
H         1.25397578512891    2.09181919514821   -2.43523415093038
H         3.74425710491165    1.88503814947714   -3.38199638510350
H         5.84066754676048    3.03754560434218   -3.89385748940542
H         4.05201988690534    6.75367773280351   -2.82635203508855
C         1.55444732989769    7.52446789732007   -3.33467401198914
C         1.99153008458807    7.37100713066672   -4.64749274990333
C         2.06133215451952    8.46704648245770   -5.48552194813222
C         1.68102683436868    9.71967407902111   -5.02905476482939
C         1.22529228058670    9.87240012415228   -3.73149528297691
C         1.15811337610793    8.77708945714006   -2.88874080264319
H         0.81452952798382    8.89581538205887   -1.87206379153586
H         0.92159060674485   10.84541378713004   -3.37406629425937
H         1.73864367746315   10.57383894377170   -5.68763393055922
H         2.41064541332533    8.34445942368706   -6.50055038072088
H         2.28296926236826    6.39432142631780   -5.00798257563620
C        -0.06594623891119    5.36729945716400   -3.18593598084725
C        -1.31685574953657    5.89808985492587   -2.88976965776190
C        -2.43410803774209    5.48393914575280   -3.58937232712679
C        -2.30832347363212    4.54357026615199   -4.59844909908659
C        -1.06169827161340    4.02664216631106   -4.90893651526608
C         0.05920451801321    4.43743712956092   -4.20984609657280
H         1.02780727268877    4.02763876568280   -4.45828888627932
H        -0.96033093301525    3.29867054692028   -5.70103483671233
H        -3.18026153730240    4.21479762669945   -5.14470028205845
H        -3.40308762463438    5.89481080473983   -3.34676497005628
H        -1.41182447655536    6.63197671658834   -2.10189394358804

