100
CSD_code = KIQGUP | q = 1 | S = 0 | Stoichiometry = C52H42N3NiP2(1+) | MND = 5
Ni        8.53635338016828   13.71524993851527    3.54980262120817
P         8.86186911131791   15.78381940222937    2.91088353383529
P         6.18652424914505   13.38583960671621    3.62107947106232
N         8.75308208958834   14.18711316606467    5.41286003676924
N         8.55871376706557   12.86734336767222    1.82609449031919
N         9.59245447759314   12.19596353403470    4.04250135513194
C         8.30377642526425   16.96973502852074    4.17084521964630
C         8.16880857468012   18.31365691340861    3.84097960050264
H         8.41744776586713   18.64235321845082    2.84253816635990
C         7.71097858331499   19.23557468718779    4.76418190153862
H         7.61322053332362   20.27377394612000    4.48713363093979
C         7.37164109122980   18.81468491060448    6.04243405535047
H         6.99942148132266   19.52417016341300    6.76527331117397
C         7.51965710742956   17.49042723933694    6.39067032997455
H         7.26625233445198   17.17224969011709    7.39150615961363
C         8.00294246375891   16.53702175498458    5.47895898391101
C         8.20415300012504   15.20979449391064    5.99668461358507
H         7.88541912925619   15.09869255576661    7.03132606739489
C         8.20720961844696   16.39661314646760    1.33348470403859
C         6.98580564623277   17.05365663338270    1.22557422533508
H         6.41035180646246   17.27931304967071    2.11217599769409
C         6.51196384268474   17.43408829626679   -0.01640053764984
H         5.57307797265551   17.96142863373927   -0.09189964246103
C         7.23781703695050   17.14210210313870   -1.15953277187864
H         6.86726061437361   17.44602844994844   -2.12638143224407
C         8.43730921007965   16.45501370854295   -1.06124679875867
H         9.00013553649742   16.21853589310019   -1.95184885992264
C         8.91753119031394   16.07664151969496    0.17781444970789
H         9.85441118434134   15.54065936450464    0.26145493002377
C        10.63968796474156   16.17249546202652    2.79769233302929
C        11.53922718462059   15.25904868871216    3.33674784790674
H        11.16509009897222   14.33680850696924    3.77120497250071
C        12.89710459177030   15.51938164543119    3.30747678786922
H        13.59233045252708   14.80595551934210    3.72384638882012
C        13.36120084026924   16.69420818703004    2.73956214550777
H        14.42027961858273   16.90029186067396    2.71408934701960
C        12.46730124524107   17.60479630002182    2.19685426582679
H        12.83156560653016   18.51721124986819    1.74930808261584
C        11.10891285629409   17.34994351356660    2.22315841346546
H        10.41888358901066   18.05658413633027    1.78524588229472
C         9.19318299531038   13.09025376600619    6.14047064492521
C         9.61362341883214   11.96624688031884    5.36650990621710
C         9.97823041071263   10.77862222119631    6.02933022258094
H        10.19608328981592    9.89050059429422    5.45801610665973
C        10.04061815319000   10.75627265074272    7.39706636705284
H        10.32894640030574    9.84711685589066    7.90347713954992
C         9.75033034643522   11.89573998725444    8.16604340238230
C         9.32986446113238   13.04657912863251    7.53338923043131
H         9.10675884120675   13.91469140204488    8.13418715223804
C         9.88064419606679   11.83057947023463    9.65416780057980
H         9.62141859199683   12.77944893983439   10.11555836161189
H        10.90298064140322   11.57692077238463    9.93113598865330
H         9.22934757386825   11.05643828944015   10.05778320990221
C         5.66952632060893   14.01708846692811    1.97805070708464
C         4.47655298708770   14.70413050172615    1.79860416208778
H         3.86519296923827   14.94467069106591    2.65624500636640
C         4.05340902780763   15.08466225401884    0.53666194669324
H         3.12418521245414   15.62164811565146    0.42224614706933
C         4.80991268169599   14.75316284901306   -0.57505374289383
H         4.47721065864917   15.03084703969608   -1.56297500278003
C         5.98339450868298   14.04468675325508   -0.41644435549042
H         6.56780877563249   13.77452983907791   -1.28388657434970
C         6.44814554206198   13.68728834156270    0.85251800985768
C         7.66047969810009   12.89080089739259    0.90474567346036
H         7.78404982242704   12.22500305160683    0.04988223580158
C         5.44293565071410   11.72449412021528    3.50418905425957
C         4.10376194900396   11.54388945704976    3.17025754609152
H         3.47271539370102   12.40218327678051    2.98827918986265
C         3.58632006069732   10.26594085667083    3.07853210497943
H         2.54678417778444   10.12517671085926    2.82333136648041
C         4.39768978056387    9.16533516282600    3.31171764194984
H         3.98781604278384    8.16973971421961    3.23632662667967
C         5.73093026706998    9.34174025871685    3.64092099172783
H         6.36252234588608    8.48525551965090    3.82350370993881
C         6.25339095310379   10.61942985020506    3.73690064206634
H         7.29296957092249   10.76851289423901    3.99878035713430
C         5.10846908387269   14.25415204440923    4.79483745068572
C         4.46413831915212   13.56486674453776    5.81762703316402
H         4.51396560448849   12.48548975530624    5.85255560754377
C         3.75479835945852   14.26084337482354    6.78029946156260
H         3.24680879914722   13.72107813095606    7.56524073679292
C         3.69693443800205   15.64464743206632    6.74158816410014
H         3.14160119007634   16.18319856969871    7.49413862195492
C         4.35752660549656   16.33778193458126    5.73921807977115
H         4.32305266369567   17.41683746809351    5.71074688249514
C         5.06895641506611   15.64696285040123    4.77769607216421
H         5.59704519205982   16.18207722416564    3.99942190089015
C         9.63734751914815   11.97776099491035    1.73589419164128
C        10.14255908695446   11.54307036630787    2.98891608763351
C        11.19830309643303   10.62019984705537    3.00037778067382
H        11.64030882220691   10.31405139307830    3.93454719677634
C        11.72444634299537   10.17365768134259    1.81110303825707
H        12.55195892996088    9.48001030519411    1.82970455056653
C        11.24332178448633   10.61362302579685    0.57309376607223
C        10.20017080912821   11.52142637400966    0.54713421355807
H         9.85510359645181   11.90637909440656   -0.40149552773674
C        11.87065628608840   10.11412807848709   -0.68995059551539
H        12.93890188250764   10.32526679305833   -0.69237065357965
H        11.42220276112752   10.57981069287095   -1.56330752098530
H        11.74821542254655    9.03478275825357   -0.77071979442662

