119
CSD_code = KIQLEE | q = -1 | S = 0 | Stoichiometry = C53H61FeN2P2(1-) | MND = 4
Fe        9.55338873882996    8.97056759495722    5.63467423823053
N         9.10432752861343    8.15621129978055    7.33672573106736
N        11.12131397704900    7.62895882665270    5.41966401195629
P        10.23996696341182   11.05515305624311    5.31264247535949
P         7.96797932397389    8.67244279010309    4.23754702398246
C         8.25348931158376    8.99555852235522    8.08769884399368
C         6.85419691639847    8.83750384734312    8.07414996411833
C         6.07264213754383    9.68207279307996    8.84824906984864
H         4.99852700231546    9.56191550180128    8.84497853391378
C         6.63830470062574   10.66416321245152    9.63587276740547
H         6.01316562651116   11.30481990068052   10.24262576930253
C         8.01059828487242   10.82783555970970    9.63908873653035
H         8.44435576114992   11.60316711088088   10.25165064161606
C         8.83073221770982   10.01619657936429    8.87388544805656
C         6.17929910167508    7.77614905013064    7.23639764899800
H         6.94562755694783    7.27041228490170    6.64191156108666
C         5.46876244216181    6.74011712857480    8.11224007752317
H         5.06741493349620    5.94181287460134    7.49026916540063
H         6.14916041978435    6.30316859911575    8.83795577109597
H         4.64414974365263    7.19811179992516    8.65617956459682
C         5.17109484508622    8.39773959808328    6.26891175244037
H         5.65055440370735    9.16412326829582    5.66362503493599
H         4.78034670607349    7.63096246198602    5.60210875226546
H         4.33620660074696    8.84937721951098    6.80142327863053
C        10.33019952267565   10.21033600223595    8.88526718319126
H        10.71235124654129    9.85951920705140    7.91571447471128
C        10.97803073191686    9.36903441688298    9.98903924237427
H        12.05006552713437    9.55657214544980   10.02187005104970
H        10.55200163510635    9.62207583329728   10.95995555604411
H        10.82342024390561    8.30935306915210    9.80766592590171
C        10.73625664294071   11.67511035764367    9.03950424321309
H        11.79285826054440   11.78841722167638    8.80627936891662
H        10.16736612268915   12.30006380732519    8.35570947327911
H        10.57739245996155   12.02859596868379   10.05736856831675
C        12.19922795045440    7.94915130436155    4.57740234722143
C        13.38348989201511    8.43140201762271    5.17284801009701
C        14.48825987416306    8.68877867420079    4.37691100016813
H        15.40152544888167    9.04849026863530    4.83100100362197
C        14.44492940320178    8.49462143443714    3.00843807267402
H        15.32005666433543    8.68922979957727    2.40311546340545
C        13.26900732621522    8.06747813866659    2.42204992230250
H        13.22775624520563    7.93894469051424    1.34982442772780
C        12.14626822913098    7.78598047858573    3.18472143823759
C        13.44850588913513    8.70674305422403    6.65869588669243
H        12.47221018188045    8.46940743695862    7.09318787846876
C        13.71984068941593   10.19138427108710    6.90893003845184
H        13.74248981619056   10.39441169020492    7.97875598326048
H        14.67284035712364   10.49721900902768    6.48163079617127
H        12.93021178707088   10.79051492569246    6.45684310597159
C        14.50112221977838    7.83795353895275    7.35045686555624
H        14.50820241402785    8.03842842377465    8.42093571978968
H        14.28274125793420    6.78240741583610    7.20289217507743
H        15.49563625702210    8.04171314346440    6.95747072704401
C        10.86796320511225    7.34933037158207    2.51937895958564
H        10.14250133206577    7.13458878093726    3.30945367839671
C        11.04390508577797    6.08786870575861    1.67395040068718
H        10.07292128205122    5.74592908479790    1.32067263004335
H        11.67860523234814    6.27746917767582    0.81005060728700
H        11.49542384064843    5.28903389444334    2.25985269063849
C        10.31749992318381    8.49779229508833    1.67530737427919
H         9.35419942784320    8.22468096825896    1.24968753589649
H        10.18239469827750    9.37600654584063    2.30430920146859
H        10.99938025269275    8.75487578856196    0.86654584319701
C         8.94977127066904    6.45409756740322    9.13123976064623
H         9.76593236825367    6.09052851610011    9.75563325106862
H         8.39970663442833    7.21811487267997    9.67624871018226
H         8.28622057313046    5.61122640684103    8.93638302783290
C         9.48863125358952    6.98691862911805    7.81935818348810
C        10.38206447246460    6.15009844663704    7.15279263536271
C        11.15785993884960    6.46071852732744    6.03265223000893
C        12.08424798646625    5.37548187409078    5.52784313496475
H        12.16731871998502    4.56273196668360    6.24576225937507
H        11.68254648605461    4.97581983410811    4.59614060632567
H        13.07644857834150    5.77063704643679    5.31638413146074
C        10.97956776572761   11.91209374544216    3.90842811106197
C        12.16361001606001   11.37414283478905    3.39079229987531
H        12.58536065186073   10.50236551595430    3.86625893373319
C        12.78469923716728   11.93032455117323    2.29409742373088
H        13.69709294352452   11.48798046027219    1.91575923428745
C        12.24646125267783   13.05172337169021    1.68010965597510
H        12.73235099288404   13.49448707449127    0.82068442733209
C        11.07263527822504   13.59630541776126    2.17818076252787
H        10.63843070240081   14.46594233549994    1.69984990559635
C        10.44260096198327   13.03743804886303    3.27110056935260
H         9.51671499931903   13.46744923334403    3.62751375632972
C         9.01925955793419   12.27847989070070    5.86823441950546
C         9.38341838929187   13.59896123122206    6.14930660380816
H        10.39114081525792   13.92626757091876    5.92675300263574
C         8.47869546373946   14.47624131042154    6.71077858503290
H         8.77673320552061   15.49666254315104    6.91894671890381
C         7.19370629489853   14.05512551219108    7.02200092572689
H         6.48854444698684   14.74503004318056    7.46642313545008
C         6.82560161494161   12.74380644704422    6.76745962620683
H         5.82866421937750   12.40302677922515    7.01217843479181
C         7.72989229417706   11.86739435338782    6.20431003882836
H         7.44641423081732   10.83885373156321    6.01075680308680
C         7.61580551013948    7.03769452186603    3.56392659526446
C         7.99766505586401    5.94889304062488    4.35925543908466
H         8.44480572648779    6.14933078477692    5.32468817580284
C         7.84394161799105    4.65259255384312    3.92114846833666
H         8.14632952312052    3.82863746717913    4.55501706076714
C         7.30437686084023    4.39894221427448    2.66744550745708
H         7.17807812843966    3.38200601351766    2.32024235360526
C         6.94453067744150    5.46517374350534    1.85775284942973
H         6.54465046609719    5.27686712424516    0.86862674099448
C         7.10240247773721    6.76625010290108    2.29188469826869
H         6.83848011930166    7.58196914061615    1.63346737829680
C         7.05022394826235    9.76302826568061    3.11725407927325
C         5.71930779217149    9.51171654220677    2.76827390880528
H         5.24581802659473    8.59815914236369    3.10234604275829
C         5.00384276730507   10.41995517187098    2.01542142273527
H         3.97551065167746   10.20639636982593    1.75006575869973
C         5.58792278964299   11.61042094780644    1.60813990142677
H         5.02262240108395   12.32046866433999    1.01901488360154
C         6.89630752858490   11.88586942792523    1.97358197027009
H         7.36022532455178   12.81475642673016    1.66912276232087
C         7.61399897233815   10.97565651028975    2.72163060315591
H         8.63369009556506   11.19191295015508    3.00831258434527
H        10.51745609295353    5.16557294705145    7.57944977780453

