88
CSD_code = KIQMUS | q = 0 | S = 0 | Stoichiometry = C35H45N3NiO4 | MND = 6
Ni       -4.39471218734305    2.51641748192960   -3.29881428141929
O        -3.54412882583037    0.82999391886292   -3.18151123515199
O        -4.98067932711446    2.00714214926565   -5.03524127980631
O        -2.52558471472790    3.34606385539225   -4.36131786359316
O        -1.73620655635427   -1.69762584651293    1.34993509379136
N        -3.86862825248778    3.09488625695336   -1.45907981607672
N        -6.43259199339386    2.01461242901091   -2.07452506587367
N        -5.44209575124589    4.34560927838795   -3.40431712568116
C        -4.81503049965389    2.80846277802381   -0.36852777670850
H        -5.31334470592604    3.73287239600289   -0.06743918875415
H        -4.27317495474229    2.43311612809630    0.50637487710047
C        -5.86160113628450    1.75486444179982   -0.75867483238126
H        -5.36646999805762    0.78243514016377   -0.80577517815997
H        -6.63537018980820    1.71282201392413    0.02912240432905
C        -7.26837646953711    3.21212905729767   -2.12616396839083
H        -7.17107280316565    3.77783797813629   -1.19652925995329
H        -8.33054532904169    2.94874724985364   -2.22237020301613
C        -6.88242221856915    4.08504822174195   -3.32826749425919
H        -7.15351675149543    3.54845059807914   -4.23935796254682
H        -7.44935588749513    5.03007099363574   -3.29281975287903
C        -4.96211086304462    5.16062209309402   -2.27555722474787
H        -5.74352664658283    5.24097946081620   -1.51724555363791
H        -4.73202782262478    6.18149079943533   -2.60383833534361
C        -3.70079446463525    4.53686775258307   -1.67850791685649
H        -2.88460235203310    4.65951936074904   -2.39361003818412
H        -3.42793238062429    5.04858070351354   -0.74110705108787
C        -7.15065091693572    0.85497497152141   -2.57788835041051
H        -7.48006586143126    1.05616041237955   -3.59493152504581
H        -8.02646234573985    0.61277504588157   -1.95507923361492
H        -6.48224193750884   -0.00124204489036   -2.59712365212233
C        -5.13756472726627    5.01656783959486   -4.66612608875234
H        -4.06077974122710    5.14673611803635   -4.75221235017834
H        -5.63507882229197    5.99535327683069   -4.72488279802933
H        -5.46888663948416    4.39939854174634   -5.49827016213904
C        -2.55520854878197    2.49848284228768   -1.16540396409411
H        -2.13723856642652    2.95149823108283   -0.25306227127917
H        -1.89766000760321    2.73644990475240   -2.01022463160680
C        -2.60678944802245    1.00445181734521   -1.01348477754584
C        -3.05519116138120    0.25415035579802   -2.11935123872690
C        -2.91935232955508   -1.16473208763633   -2.05450119610655
C        -2.47221264433139   -1.73199357647470   -0.87947351056103
H        -2.37238470475103   -2.79937009385707   -0.78021441521177
C        -2.12484664694767   -0.97708091862393    0.23937897384628
C        -2.16875981001448    0.40170794226622    0.15672309261423
H        -1.84919637288267    1.02680653791497    0.97836092788536
C        -3.19933971453770   -2.00171472123754   -3.29545941913256
C        -2.29137461603369   -1.50209075944682   -4.42792184201148
H        -1.24524278783079   -1.61039001632693   -4.14736358945557
H        -2.49589242876434   -0.45419147735139   -4.62711610750368
H        -2.47322551787108   -2.07315959083345   -5.33674844360441
C        -4.66386210616406   -1.83087546724962   -3.71340537468207
H        -4.85360962721511   -0.78122544653210   -3.91369281272610
H        -5.32685244997487   -2.18077199754177   -2.92297082094226
H        -4.86800736677817   -2.40218333268657   -4.61707111354095
C        -2.92699125770325   -3.49354529342037   -3.08251027554371
H        -1.88924052839633   -3.66780620114205   -2.80880982517434
H        -3.12599070201066   -4.02789220008521   -4.00982373110929
H        -3.57319696813475   -3.90666398269829   -2.31121339277583
C        -1.28537271802202   -0.98354608211043    2.46751108940600
H        -1.00473106676181   -1.73225949700844    3.20749488398798
H        -2.07170753332728   -0.34365664129407    2.88612711098749
H        -0.41040513605343   -0.36755519071537    2.22958715785744
C        -4.25872904785089    1.65235790569910   -6.01918144624000
C        -2.90509651322616    1.91078527147794   -6.20922920818417
H        -2.41736376056177    1.45784835741306   -7.05654804125202
C        -2.10286483113792    2.66129970438868   -5.31934285529890
C        -0.63363031886089    2.67748584216322   -5.59032613800850
C         0.04860719109060    1.54007162007746   -6.01009010980660
H        -0.48705281467032    0.61204195709290   -6.14215041965574
C         1.41407490442964    1.58760414947872   -6.22537070558589
H         1.93894145710952    0.69834724221576   -6.54420141946671
C         2.11175492514839    2.76879629430144   -6.03238735313495
H         3.17731676706282    2.80355919865003   -6.20865795998427
C         1.44170012016335    3.90243500152050   -5.60309600041121
H         1.98427408139536    4.82359091956522   -5.44346034678983
C         0.07960245410164    3.85277911539926   -5.37398583938319
H        -0.45289240306173    4.72817744361140   -5.03031866697978
C        -4.96373939217628    0.85606894029816   -7.06854913625893
C        -6.00358636167506    0.01317522737441   -6.68558700668710
H        -6.25916217444439   -0.04826290022362   -5.63927100376402
C        -6.68234869001801   -0.73956782725409   -7.62477533324346
H        -7.47809012123763   -1.40107699276301   -7.31307235524946
C        -6.34425049472900   -0.64565107184235   -8.96471522572225
H        -6.87391165523152   -1.23222874335590   -9.70148565858433
C        -5.32802848033593    0.20959257870620   -9.35813511121913
H        -5.07168732819903    0.29619254856766  -10.40448903439370
C        -4.64055313379268    0.95642994933033   -8.41859395961202
H        -3.86276753931430    1.63376435959982   -8.73825995874232

