87
CSD_code = KIQPUV | q = 0 | S = 0 | Stoichiometry = C30H52N2Si2Zn | MND = 2
Zn        2.43004465152187    2.66056866569327    5.45056469735869
N         3.06591213758555    2.71987458148949    3.68878878469844
C         2.01704527511698    2.83125180567121    2.75134114791346
C         1.64148524033458    4.08758963102502    2.25246392944240
C         0.58598555527442    4.17263307135540    1.35717621855831
H         0.28196956338783    5.13615980529139    0.97789233720617
C        -0.09383769040153    3.04183484982977    0.94776188296903
H        -0.91403568695372    3.12410658826943    0.24962163216995
C         0.27062213344594    1.80698388561553    1.44858910101299
H        -0.27753006566518    0.93007575132254    1.13926701544321
C         1.32105886185206    1.68161006304985    2.34484135787958
C         2.33125053766653    5.33535013151194    2.75077603208184
H         3.30919511563023    5.04059216644428    3.13173706458315
C         1.53247706266628    5.92231280583481    3.91828667690355
H         2.00149040756469    6.83584023782206    4.27843457499771
H         1.49327836271790    5.20426204235345    4.74159032544378
H         0.51386182695402    6.15022270295020    3.61034812097634
C         2.54285609474366    6.38320724475567    1.65891374685146
H         2.98988446731337    5.92912948701341    0.77741116248608
H         3.20919522664926    7.16394208319506    2.02052309549947
H         1.60570755090157    6.85241188283576    1.36939200713814
C         1.66650631783401    0.33415679408348    2.93515279966735
H         2.67719209962892    0.40054798728935    3.34858867768295
C         1.65468556672541   -0.79209537361940    1.90207700662173
H         2.07892842591931   -1.69602481640391    2.33502421364767
H         2.24464304836671   -0.51548075656731    1.03172558427119
H         0.64339666643780   -1.02140201026644    1.57545986323028
C         0.69863756989904    0.02252954092816    4.08142770209441
H         0.93500810695821   -0.94082032347966    4.52873635696108
H        -0.32628931319458   -0.00306242900486    3.71621968837744
H         0.76541815344070    0.79172889982241    4.85855810618719
Si        4.71117292644918    2.52107332576781    3.21423561201694
C         4.81724648556578    1.50361030552202    1.60401221190723
H         5.78439478388524    1.62935244002986    1.12887451915786
H         4.05710978736619    1.83306627606598    0.90254033884104
H         4.66890459105991    0.44273307756630    1.77531940622407
C         5.70101778442125    4.13778908764887    2.92167116197150
H         5.36295849603544    4.66911513171626    2.03730534505529
H         6.75142764605375    3.90359525183765    2.77402928168532
H         5.63998329371331    4.81984949696488    3.76528893262872
C         5.53056438731903    1.63578845920038    4.69449511458768
H         6.59902407738117    1.81830629841106    4.71459039016818
H         5.38719035420244    0.56094817398488    4.65551550786284
H         5.12256656584094    1.99146697987375    5.64209350729683
N         1.79413777694199    2.60120276115245    7.21232310787314
C         2.84300438424462    2.48983529731165    8.14977239376669
C         3.21858991972885    1.23349916036146    8.64863283201018
C         4.27410112955421    1.14846427259005    9.54390869935323
H         4.57814347083892    0.18493730600847    9.92317073392127
C         4.95391089928749    2.27926968783498    9.95332723513330
H         5.77412983808890    2.19700320726754   10.65144326438099
C         4.58942553373234    3.51411944258697    9.45251568307270
H         5.13756904806286    4.39103328753801    9.76183769687379
C         3.53897423232528    3.63948503267792    8.55627893852720
C         3.19348962233684    4.98694027413691    7.96599395743448
H         2.18279470749474    4.92053938927976    7.55258231190354
C         3.20531650444685    6.11318450386996    8.99907912867201
H         2.78104570665286    7.01711271560794    8.56615617703603
H         2.61539104933163    5.83654949462675    9.86944590003153
H         4.21661140320098    6.34250299991657    9.32566771996896
C         4.16132227819881    5.29858661240887    6.81969402363263
H         3.92493203913958    6.26194117680927    6.37240643439229
H         5.18625991972821    5.32418017535955    7.18487147159643
H         4.09452199298280    4.52939662272074    6.04255516958226
C         2.52883072941551   -0.01426585648445    8.15032386297508
H         1.55089101048031    0.28049068574815    7.76934976652689
C         3.32762005749378   -0.60123858876219    6.98282948352085
H         2.85860277261511   -1.51476536001946    6.62268519956883
H         3.36682960305447    0.11680627274389    6.15952150028487
H         4.34623155872886   -0.82915461208859    7.29077730728636
C         2.31721244392818   -1.06210960322555    9.24219812809916
H         1.87016272342223   -0.60802460256157   10.12368668862521
H         1.65088577908973   -1.84285330495514    8.88058554848750
H         3.25435807079228   -1.53130565850945    9.53174326386022
Si        0.14886890192624    2.79995437081358    7.68686788867311
C         0.04275783052935    3.81739277466210    9.29710550761658
H        -0.92438892762166    3.69162467253414    9.77223873288754
H         0.80289993840836    3.48794410288754    9.99857621544154
H         0.19107616942775    4.87827693366361    9.12581724419922
C        -0.84093625197799    1.18321095752957    7.97941246929549
H        -0.50285913692344    0.65186972695742    8.86376226137091
H        -1.89135064385950    1.41737582481710    8.12706467077116
H        -0.77989067225176    0.50117272089704    7.13577969790502
C        -0.67054455899255    3.68523635406548    6.20661656981833
H        -1.73899927496671    3.50269925605197    6.18651702283271
H        -0.52719289823376    4.76007821577967    6.24559766408437
H        -0.26254113042079    3.32956999668836    5.25901818694740

