97
CSD_code = KIQQEG | q = 0 | S = 0 | Stoichiometry = C32H58N4Si2Zn | MND = 4
Zn        6.21202506205822    2.50517959958986    5.43958640946910
N         5.99908659520481    2.08435691518796    3.53743984193434
C         5.25865086097522    1.10380609474069    2.86079744958876
C         3.96000265790922    1.37809576226456    2.40119102062354
C         3.24280389487825    0.39446927977012    1.73736990178597
H         2.24782286597647    0.61141992500148    1.37691550757204
C         3.77661965596380   -0.86147866938569    1.52949718447932
H         3.20733894180132   -1.61838504926872    1.00981812911396
C         5.04308870434422   -1.14185002228570    2.00276047207371
H         5.45399906663155   -2.12970484028665    1.85561210630513
C         5.79453001598755   -0.18151159930106    2.66279193876301
C         3.31894463699451    2.72326541952831    2.64355713064213
H         4.03521931513642    3.33295746783390    3.20155074779175
C         2.05100762485639    2.57194094361787    3.48739779612030
H         1.64587643028536    3.54897289506522    3.74516536675280
H         2.27466955121118    2.03306126341691    4.40443694541943
H         1.28733800850297    2.01981841858341    2.94480744952863
C         3.00146092670132    3.42755892544735    1.32343108756022
H         2.64303065267996    4.43876784524984    1.50733844094093
H         2.23362282344635    2.88867920070384    0.77321044389347
H         3.89085175174684    3.48070693514382    0.70032061470194
C         7.16304071678253   -0.54999626968606    3.18374146126383
H         7.61618239905059    0.35831675257099    3.59026840849847
C         7.04953853430482   -1.57169112671447    4.31786086906172
H         8.03821024019444   -1.86378170231581    4.66679826440967
H         6.52888488277296   -2.46522596404559    3.98177479532723
H         6.50344411248454   -1.14918357542240    5.15700903988112
C         8.06382846376136   -1.08383016980068    2.06755759252175
H         9.08436979881087   -1.19779398328168    2.42971393046487
H         8.06771263999607   -0.40287478096066    1.21984486956314
H         7.71990914116775   -2.05581089106447    1.72279393107358
Si        7.06830744810118    3.21457859068038    2.86853214529784
C         6.33027902052246    4.82709082167345    2.14864050990631
H         5.85066116261521    4.61515023354213    1.19960415754592
H         7.08990640615573    5.58031673696869    1.96367874630797
H         5.57795063141911    5.26358703495598    2.79761363265457
C         8.33710884924009    2.62129180474464    1.57220487110762
H         8.97853178534238    3.43231994372045    1.23904464154357
H         7.80848279666417    2.24754892211713    0.70187609231648
H         8.97032601177752    1.82108587251143    1.93667768646784
N         7.87886460503255    3.63170279473651    4.44417587103081
C         8.14695842040675    5.04422565574325    4.63996745707007
H         7.23355085290586    5.61504221732090    4.51511101838780
H         8.89237904084782    5.41305750510975    3.92415857663954
H         8.53616647649412    5.22168080466271    5.64514605312255
C         9.12171072793330    2.90281905171283    4.65196179922093
H         8.95282012059322    1.84037832716036    4.50233927377755
H         9.48568923557235    3.05561621249244    5.67007349126782
H         9.90159725082781    3.23880525971063    3.95803111758944
N         6.04161488953960    1.56386556077705    7.14842169709825
C         6.18525650249415    0.21543018149080    7.50538429884101
C         7.43692016012828   -0.29210653733563    7.89070731947566
C         7.56043083272959   -1.62969843778475    8.23454298330969
H         8.52219217308885   -2.01557062280533    8.53975741860626
C         6.47490148508647   -2.48139864682034    8.19128317385560
H         6.58519143792055   -3.52165929745573    8.46102859653687
C         5.24865010334184   -1.99077843449351    7.78802294948394
H         4.40430328883598   -2.66185573673418    7.73444536587545
C         5.08327457077705   -0.65676430926518    7.44799775768740
C         8.66049635100308    0.59226852769636    7.90825649445335
H         8.35164499586207    1.58784811246279    7.57565256893477
C         9.72021911715784    0.06508393120492    6.93788960313915
H         9.29177799605858   -0.05374287008846    5.94608315434052
H        10.09889862718433   -0.90065455132285    7.26422479378256
H        10.55907339137520    0.75630828748266    6.87686807583239
C         9.23799810895236    0.70674719485554    9.31986905637177
H        10.05576972139932    1.42490762705642    9.34004400093163
H         9.61925918083103   -0.25335244892524    9.65978653532431
H         8.47020225508812    1.03310942728609   10.01693794615240
C         3.73002203454907   -0.17615553974680    6.98156115566004
H         3.77992666672883    0.91190310879948    6.89562190532687
C         3.40997208344456   -0.74621372742803    5.59729128664725
H         2.41836893121301   -0.43204968358201    5.27645073465484
H         3.43604805468774   -1.83327926828344    5.61233619764934
H         4.13284280357704   -0.39419763243657    4.86551014880458
C         2.62561399205261   -0.53052441870026    7.97953136023432
H         1.69587811027881   -0.03689170898146    7.70110164956525
H         2.90139884431039   -0.21410219042431    8.98269948172655
H         2.44301050478478   -1.60202302292454    7.99681622745324
Si        5.59266761088878    2.85332751798926    8.15058913446784
C         6.96504503386260    3.66081094346306    9.21205426108244
H         7.22408179331318    2.99980459812204   10.03174681604721
H         6.64942081896211    4.60391533051252    9.64719450787065
H         7.87313044239530    3.84037450919659    8.64561596388724
C         4.10772023036497    2.63905716583260    9.33099649249242
H         3.91707285299868    3.54463941856595    9.90032237417969
H         4.32873070924279    1.84985463009962   10.04176668407856
H         3.19273826403438    2.36698626255662    8.81775079219310
N         5.19770142041124    3.99279318520216    6.78937386327680
C         5.61096076255563    5.36686584079928    7.00406263448623
H         5.42674908064487    5.96441811917655    6.10826925353041
H         6.67003688020993    5.40316965257985    7.23443703028476
H         5.05572163234959    5.82709759048825    7.83114295003573
C         3.78341333854900    3.99371113416302    6.44400404205815
H         3.44524158927367    2.97370222359446    6.28433541677002
H         3.61766145326588    4.56052095221543    5.52552778962059
H         3.17874705712741    4.44844526241506    7.23788976749926

