51
CSD_code = KIQQIK | q = 0 | S = 0 | Stoichiometry = C18H28HgN2Si2 | MND = 2
Hg        7.69304905943131    3.02916965992227    7.37259735372945
N         9.87447972440126    2.89113534210453    7.21365349196704
C        10.58844224457702    3.32711276155454    8.29696774503175
C        11.93978368652043    2.99663261548197    8.48041995750098
H        12.42221033941746    2.35799666983931    7.76027757538364
C        12.64793985255849    3.46610371214311    9.56650932743235
H        13.68734341272184    3.19014393571726    9.67420425465468
C        12.04708874922242    4.27312720042194   10.51862158529828
H        12.60704973788192    4.63434569949039   11.36714268036901
C        10.71028344213365    4.60010611461835   10.36724960332976
H        10.21635017164768    5.22236208414005   11.09976077953868
C        10.00212231160468    4.13423567470868    9.27977347278923
H         8.94354368344654    4.40809661205113    9.17283664893629
Si       10.53925251207412    2.18699807883424    5.76594856191757
C        11.15765709851676    0.39163329379202    6.00920978027923
H        12.10710182571101    0.35029819706566    6.53326127393962
H        11.29156903272215   -0.10299607460049    5.05212646912297
H        10.44360364017877   -0.19186972635363    6.58364895916981
C        11.90604971794259    3.27759093830173    4.99553842789089
H        12.34247717957166    2.79508968644714    4.12666488997243
H        12.70736762713813    3.48210077421621    5.69697535840932
H        11.50434610372198    4.23408809460668    4.67506578817835
C         9.06395344713294    2.14119973623574    4.55463153519952
H         8.29314502156964    1.43812761537014    4.86941997375548
H         9.39189827013073    1.82819226963710    3.56988844605875
H         8.60691906742874    3.12395945278268    4.44024891856588
N         5.56986566212886    2.59026200882054    7.07006220507649
C         5.32133865999452    1.37190704420342    6.48865194289759
C         4.12852873929617    1.10667107256059    5.80191463119134
H         3.39535152487195    1.89007091618874    5.70925221949777
C         3.89000936206499   -0.13052815355770    5.24041748883532
H         2.96024867889540   -0.29995354330749    4.71581431043687
C         4.82586279678667   -1.14777657223025    5.33023769519740
H         4.63564764428682   -2.11089166536470    4.88244640532564
C         6.01290931022698   -0.90705623909820    6.00151059187369
H         6.75712053201785   -1.68607270944072    6.08582144485941
C         6.25165309060413    0.32677017230572    6.57037528927820
H         7.18543437328105    0.49317777373059    7.11984734918778
Si        4.36468094925044    3.77881919567423    7.46457964996845
C         2.97567028311468    3.03107537802640    8.54031290595308
H         2.20052102208533    3.76307199712331    8.74360397794337
H         3.36249739500117    2.68376237514586    9.49332853089474
H         2.51072434414934    2.18260496275475    8.04971934534670
C         3.62386018344828    4.69212429033352    5.95285026613143
H         4.35841216262298    4.79797807616137    5.15930395595295
H         3.28896660572387    5.68823498681010    6.22617365764214
H         2.76923479299588    4.16667444965605    5.53797722886757
C         5.34004905010139    5.05610136843258    8.49702490514298
H         4.68447516467016    5.83824097750168    8.86251772117319
H         6.11527175726243    5.54404030577311    7.90300451054139
H         5.80583895571694    4.59461111329345    9.36720891236343

