87
CSD_code = KIQQUW | q = 0 | S = 0 | Stoichiometry = C30H52HgN2Si2 | MND = 2
Hg        2.31296384507792    2.82538730447326    5.63187104999782
N         2.98202233821863    2.72185607953999    3.54387700566139
C         1.93283281204509    2.82937943923593    2.62207627731844
C         1.53715206436838    4.08525045552177    2.12919584055095
C         0.49005715096929    4.15867583784238    1.22383314783298
H         0.17423509183356    5.12020681987258    0.84783348726479
C        -0.16663448004821    3.01926229380738    0.79986054144177
H        -0.98161005087278    3.09320375486042    0.09457302579254
C         0.21345572565825    1.78577153375475    1.29450218517861
H        -0.31714561204966    0.90264268720973    0.97191958871123
C         1.25464960676360    1.66994316175067    2.20133014378626
C         2.20434146904983    5.34340535084822    2.63174965585507
H         3.14430615006162    5.05365796666686    3.10565112470810
C         1.32213915001875    5.99808931978670    3.69956293881721
H         1.78314448615950    6.91369656946008    4.06462430349081
H         1.18757864276684    5.31831187528058    4.54803819711705
H         0.34024170865999    6.23666704042074    3.29594102224049
C         2.52341036108286    6.33159982075002    1.51070489929904
H         3.04984081937379    5.82912781223603    0.70226474782065
H         3.15569666723017    7.13174265565722    1.89052188558362
H         1.61977616396082    6.78161612052801    1.10697698021113
C         1.61979873898739    0.32457997110766    2.78396583296060
H         2.61859305148664    0.41356044109266    3.22164471736280
C         1.65735144366525   -0.78838503924921    1.73774937689267
H         2.09285811686619   -1.68787018263886    2.16867477120473
H         2.26030344270443   -0.48610141614758    0.88501891411607
H         0.65941458624751   -1.03652267852406    1.38470680312263
C         0.63561500147784   -0.02524354923329    3.90554995666699
H         0.89094843545671   -0.98384287102308    4.35271869359609
H        -0.38056074091011   -0.07741841720973    3.51966842520765
H         0.66037049954474    0.73957248253758    4.69251305175533
Si        4.63935804237497    2.55281373936522    3.10141822280773
C         4.76995614658990    1.66004785334449    1.42085243355746
H         5.74594449681987    1.80984166097958    0.97159678123207
H         4.02308130506719    2.04467029926465    0.73391136851682
H         4.60931823110854    0.59190922766369    1.51797562000126
C         5.63048386074280    4.18982961024927    2.97875988882257
H         5.32830349845734    4.78787219525673    2.12462642568886
H         6.69144622084772    3.98396095621763    2.87124948216169
H         5.51041204602183    4.79942497751075    3.87087728460000
C         5.43907113824694    1.54224244672223    4.51124398013547
H         6.51900485850665    1.53654556307851    4.41774617336099
H         5.10571733325136    0.50926255397361    4.51603942070666
H         5.20478399788408    1.97493691165844    5.48630921997833
N         1.64391564542158    2.92887871969686    7.71986324967072
C         2.69311330341694    2.82133754560384    8.64164728276564
C         3.08879558304018    1.56546019156242    9.13451469785110
C         4.13590108748609    1.49202142263753   10.03986470797000
H         4.45172662076744    0.53048509719186   10.41584975946070
C         4.79259904307780    2.63142925205977   10.46384482228616
H         5.60759995593713    2.55747490764240   11.16910241269118
C         4.41250350118090    3.86492678347912    9.96922160871200
H         4.94312596502482    4.74804809825916   10.29179078765211
C         3.37130070884803    3.98076737819923    9.06240384394810
C         3.00615144715223    5.32613508784213    8.47978190180869
H         2.00735423894121    5.23715461666590    8.04210950110652
C         2.96860224564818    6.43908539166110    9.52601470550442
H         2.53309858110555    7.33857335530933    9.09509301869566
H         2.36565190241818    6.13680119443418   10.37874784559744
H         3.96654112661009    6.68722099953151    9.87905269131780
C         3.99032196003354    5.67594266674428    7.35818379169068
H         3.73498682263016    6.63454597977129    6.91102529002645
H         5.00650080886355    5.72812099494810    7.74405802403022
H         3.96555437476341    4.91112946314731    6.57121776396380
C         2.42159469551595    0.30730799768981    8.63196920607584
H         1.48163366994631    0.59706022260726    8.15806333658123
C         3.30379544927209   -0.34738423961388    7.56415954378372
H         2.84278365206972   -1.26298780516079    7.19909661770750
H         3.43836644931374    0.33238927975914    6.71568368989241
H         4.28568984364687   -0.58597266755510    7.96778278490770
C         2.10250916546040   -0.68088874208861    9.75300708923021
H         1.57607892303355   -0.17840985057732   10.56144270225243
H         1.47022237409837   -1.48103178325001    9.37318864137971
H         3.00613931453607   -1.13090477859417   10.15674362606009
Si       -0.01341079524693    3.09792126981504    8.16234197596825
C        -0.14399251904961    3.99068529943001    9.84290481377988
H        -1.11997228706266    3.84086961777406   10.29217522636130
H         0.60290555264462    3.60607300109774   10.52982763014890
H         0.01662280218707    5.05882701093844    9.74576794968250
C        -1.00453491033997    1.46090048612232    8.28500496928953
H        -0.70231977344274    0.86285903631701    9.13912541147898
H        -2.06549298127136    1.66676425623729    8.39256380467365
H        -0.88450534203048    0.85129763244596    7.39288628876636
C        -0.81316297980816    4.10847803171605    6.75252635808791
H        -1.89309420942292    4.11416462970377    6.84605416362486
H        -0.47982481880428    5.14146125558884    6.74772555810877
H        -0.57890405937648    3.67580105770745    5.77744601227636

