53
CSD_code = KIQRAG | q = 0 | S = 0 | Stoichiometry = C20H29ClN2Pt | MND = 4
Pt        4.93067850936423   -0.94415343501822    4.96942930639134
Cl        4.80715897460425   -2.57222502642675    6.64030063987703
N         6.94970032683693   -0.90375331187008    4.68149278652457
N         2.94759911662018   -0.64148634506591    4.58705501365013
C         5.04207657847970    0.27269447709349    3.48838584638078
C         6.30261164976116    0.54314841361500    2.94967944198213
C         6.37491943615080    1.35557560721048    1.81796197925432
C         5.19693697252238    1.84352909882888    1.26262477617310
C         3.94133044090849    1.52783753909651    1.76991116651045
C         3.85453151822868    0.71456239632253    2.90016196770816
C         7.32187923210401   -0.16104019456251    3.68639338871856
C         2.71974091355509    0.14982894099053    3.58573124629449
C         7.93346446733948   -1.60418579016107    5.46121572049402
C         8.03498481046120   -0.99176767207324    6.86545042761429
C         8.52050529741708    0.46417165048640    6.84455071168177
C         7.59521823596665    1.41952420347062    7.59829988443424
C         6.23985516083812    1.61320066146883    6.92099592097831
C         5.41587738391885    2.69438991289156    7.62323093768797
C         3.91928876591412    2.57991454890830    7.32343153994220
C         3.22437520587544    1.63878326882572    8.30617837100079
C         1.72340948959649    1.48721871998565    8.05550055622647
C         1.37973160394321    0.79706067407538    6.73548698858431
C         1.78566176433190   -0.67459981299609    6.72047795427674
C         1.84788649027208   -1.23911848358582    5.29737219757118
H         7.32564416484734    1.59704223680388    1.36406644072442
H         5.25893031618254    2.47412504063642    0.38750902337829
H         3.05229756254974    1.90066278793906    1.28131337117329
H         8.37354729215692   -0.10328649374366    3.40397978687077
H         1.69793853586266    0.34534246900114    3.26055336983627
H         8.91346507521163   -1.57756657893194    4.96501721185860
H         7.60909836769161   -2.64444201084691    5.56407309828279
H         8.71290936870264   -1.61266525399549    7.45143996336719
H         7.04899598817634   -1.06090417348474    7.32614950570939
H         9.51782312644896    0.52360342877698    7.28493603403942
H         8.60285527837000    0.81600625347008    5.81327062431064
H         8.08726985757810    2.39316525535329    7.67393082301304
H         7.44399354389878    1.04739104692309    8.61382796368712
H         6.39207123926292    1.90360899596720    5.87764340620427
H         5.67768405460982    0.66621753991730    6.92151469212375
H         5.78347240331636    3.67424874378218    7.31034005959040
H         5.56743062615315    2.62146592309404    8.70265724668489
H         3.79910007813023    2.21635309497713    6.30048253079436
H         3.45075135055395    3.56469084432461    7.38776139788610
H         3.70791670399475    0.66269896728989    8.27290555730672
H         3.35981254652273    2.03289798763447    9.31658277253191
H         1.26492508017112    2.47945281880004    8.06255982280693
H         1.28489687875831    0.91467894480322    8.87612752047535
H         0.30277527667302    0.87580589898098    6.56349571692769
H         1.87976190593649    1.32331835213366    5.92046797973272
H         2.77765835128057   -0.80163250293958    7.15773519967400
H         1.08200154104699   -1.26569419608028    7.30751660725584
H         0.90040940056783   -1.06220453259832    4.77046249589958
H         2.03224174033547   -2.31639092949883    5.35886100789726

