62
CSD_code = KIQREK | q = 0 | S = 0 | Stoichiometry = C27H32N2Pt | MND = 4
Pt       11.80101872878007    9.12369818334698    2.11584482296320
N        13.60072361151208    8.16209177248171    1.97453559108413
N        10.44595414324821   10.65037649152542    1.99291131273243
C        12.98534395481843   10.62796538311539    1.79194876090839
C        14.30666809891096   10.33803015310034    1.43379126646781
C        15.10258895727130   11.35304855062682    0.90277546014159
C        14.53820392931129   12.60448652231894    0.68386627724954
C        13.19088936892494   12.86004293976913    0.91168933816393
C        12.39291041643382   11.84682111513331    1.44309897609318
C        14.57865233256667    8.93902272670810    1.62660105900402
C        10.97065908772726   11.78447281680587    1.64697454916491
C        13.86217935664843    6.76511095906602    2.21641144438415
C        13.32634452098946    6.35851246174085    3.59148702727944
C        13.91246962620322    7.22970814782505    4.69956912258896
C        13.33082353250115    6.91031446087834    6.07454636265144
C        11.81485147743926    7.08673686818269    6.17749350345731
C        11.32374853052007    8.48813738204353    5.81687997232006
C         9.85377935397253    8.65317393564104    6.19974528508001
C         9.33967993256845   10.09070582356553    6.10583830624227
C         9.50043322233607   10.73062714393116    4.72899913975795
C         8.77652292001378    9.95935289257420    3.62819324726145
C         9.02946192946729   10.57867531624058    2.25124799578296
C        10.54941812584237    7.53833603992794    2.08149314081076
C         9.80842127159956    6.57422984026025    2.13552413606819
C         8.94189702728367    5.45823792975052    2.22129723829253
C         8.37848862169726    5.09015339757044    3.44565925763910
C         7.53600049713701    3.99925600667918    3.52588978900769
C         7.24092053724942    3.25819563158422    2.39251552818839
C         7.79572772387384    3.61594892029330    1.17370657720979
C         8.63927928214899    4.70520811198905    1.08440538441763
H        16.13380602497018   11.17038526293363    0.63283491068955
H        15.15661480814327   13.39134583658426    0.27584624211422
H        12.77099669836859   13.82138657294927    0.64868371887888
H        15.57656876801263    8.52659853000265    1.47313734335273
H        10.33591533925452   12.65990895618351    1.50501316678852
H        14.94025744139979    6.56219989945447    2.14959446298343
H        13.34383076129836    6.17604729526873    1.45100459343570
H        12.24171103311509    6.47379254486232    3.56699731850637
H        13.56200410160756    5.30797108574931    3.76832178856840
H        14.99733780011409    7.09326810024764    4.73598293963661
H        13.71773654193374    8.28010764616152    4.46476902183085
H        13.81167721898524    7.55933427750696    6.81102519134455
H        13.57743054452718    5.87800181634423    6.33567451396488
H        11.52736859094628    6.86979874084396    7.21021536771387
H        11.31140395734093    6.35628307475883    5.54318243344304
H        11.92295302399379    9.23145938714448    6.34839710839791
H        11.44641761597773    8.65632272483575    4.73168118213656
H         9.24532342327958    8.00033695383390    5.57312554386811
H         9.72194574037820    8.32229422852491    7.23384018613564
H         9.87427330934818   10.70440025630639    6.83544080137690
H         8.28218630802882   10.09847496441985    6.38224379469293
H        10.56474030080087   10.78446910078994    4.48254142120961
H         9.11705606910829   11.75443152584702    4.77012413325568
H         9.14249831625299    8.93205911213620    3.59591339186718
H         7.70231417645601    9.94230014664847    3.81851007090584
H         8.56790993729646    9.93918292343057    1.48997323128424
H         8.58019657309344   11.57997509900552    2.19265983268698
H         8.60943829587731    5.66819905082447    4.33048557733465
H         7.10416977724453    3.72302251828269    4.47810265907233
H         6.58101696674003    2.40501439974044    2.45857849565387
H         7.56799539315787    3.03909432367982    0.28775480356118
H         9.07364502395740    4.98665572001047    0.13500488088228

