125
CSD_code = KIQSUY | q = 0 | S = 0 | Stoichiometry = C62H50Cl2N4O4P2Pd | MND = 4
Pd        2.27905939485080   10.72137835115733   -0.00003311423234
Cl        4.29339899432500   10.78120464210977   -1.10318452389225
P         3.23906364701580   11.51830516649368    1.87533113558537
O         3.11292692576026    4.64960481817193    6.30966430607352
N         4.40664325120873    7.10053016822212    6.92008731363868
N         4.09396910176562    6.59713388794109    8.03097612322732
H         4.65908461316569    9.40782566101617    6.14216992231331
H         4.53402252208936   11.29300377708562    4.54719599608087
H         2.33121599219917    8.84078845189032    1.80410585481006
H         1.89932306777603    6.48084805780524    2.35882376620373
H         2.08867867465423    4.58665358562553    3.94625075484049
H         6.74202683108989    6.51343169551184    7.66672976287433
H         8.40200493383971    6.18978271780103    9.47376278125284
H         5.25022605005922    6.11839787995272   12.35303529950473
H         3.59186482744161    6.43917011250796   10.54612225592665
H         1.76698407558312   13.44636293922191    0.54844404232738
H         0.31762792279275   15.33474816100144    1.26210411039443
H        -0.08868970488068   15.72975425356825    3.66324196859691
H         0.93980081190966   14.26071829843716    5.35078730803795
H         2.39459232783811   12.39806130746195    4.65405847632606
H         4.30910507218998   14.27387679920997    2.17102028016511
H         6.61560975021828   15.13823590571244    2.10212559325375
H         8.50767136326979   13.59315793228496    1.77471162020696
H         8.09661593658081   11.17415903708076    1.51267223303766
H         5.78531764290288   10.30330500449281    1.58013029965602
C         3.07627972004073    5.73604151757382    5.44293250444586
C         3.63684734877470    6.96290688542706    5.81565545481363
C         4.14438917126005    9.29976964375848    5.19879975093230
C         4.06303709737748   10.34601889507897    4.32098260166422
C         3.37914056131821   10.18752392281708    3.09994239729326
C         2.84443659408586    8.96523314878814    2.76356342543867
C         2.38972727974226    6.60693255420176    3.31208459585768
C         2.48694097403516    5.56018050109378    4.18895787289916
C         2.92860671701081    7.86902973995047    3.64193954987377
C         3.57920003980780    8.04923106016330    4.88812577398817
C         5.06851572188414    6.51876397675934    8.99776318499891
C         6.43544443985430    6.44890205389059    8.69993496180642
C         7.34993753184905    6.25515040281423    9.71184278879721
C         6.93924673022819    6.13926417925803   11.03669643399857
C         5.57639884033532    6.21020438249884   11.32675533954774
C         4.64729367270335    6.38381078342595   10.32650103917842
C         7.92871566648267    5.93088737235743   12.13937063934481
H         7.86779728205490    6.74559739942671   12.86023598164099
H         8.94292874913569    5.88399621775613   11.75177955325144
H         7.71455993699576    5.00420386973296   12.67083799083934
C         2.19634533367694   12.83554767861883    2.56348329784267
C         1.59897789498414   13.65748610814010    1.60864577558810
C         0.78444301564239   14.70071331022597    2.00168506935056
C         0.55518715074797   14.92036061450147    3.35188412824891
C         1.13484290975516   14.09546368983555    4.30099938928410
C         1.95754983704320   13.05116567490032    3.91281930242055
C         4.90818169088314   12.23055249812460    1.90142331366145
C         5.13974628281258   13.59424387918387    2.03458041971580
C         6.43581025240418   14.07816919910524    1.99441090893422
C         7.49853971162227   13.20976231865745    1.81077664436874
C         7.26842573755113   11.85035069931786    1.66544856501847
C         5.97819145252142   11.36038949528187    1.70780277036058
O         5.34795342108693    4.44552089077334    6.16058166571936
C         4.30041307187672    4.11422173261515    6.64438808243130
C         4.11624253715352    3.06253335576015    7.70300698909849
H         3.21067866034223    2.49390411826064    7.51353969751761
H         4.01527438638806    3.56449589983301    8.66410665688851
H         4.98482632901410    2.41189623089760    7.72891201081780
Cl        0.26438836385812   10.66028199113759    1.10203019514760
P         1.31895109727607    9.92421674475295   -1.87560186080740
C         1.17913688062007   11.25497186257565   -3.10031184599571
C         0.49539697394354   11.09651448434448   -4.32143389945941
H         0.02483976816924   10.14938817113706   -4.54794712964213
C         0.41413352263349   12.14278468497679   -5.19922276624211
H        -0.10022711384274   12.03468280793241   -6.14277040401190
C         0.97916534165885   13.39335296723971   -4.88840021953097
C         0.92142501801091   14.47977016224106   -5.81585092782059
N         0.15147568980551   14.34233487895554   -6.92017169922303
N         0.46390646881823   14.84587930621026   -8.03105718704334
C        -0.51088259286716   14.92458498695067   -8.99755670669978
C        -1.87770401962451   14.99474897235584   -8.69931956494271
H        -2.18400627606423   14.93017128461207   -7.66603859692537
C        -2.79243303047193   15.18899501670436   -9.71092401249355
H        -3.84441079247670   15.25460894910966   -9.47251837323271
C        -2.38209032967611   15.30505525928432  -11.03586844630973
C        -1.01934144019334   15.23383428055800  -11.32633086129922
H        -0.69345608887271   15.32568333225422  -12.35269148533545
C        -0.08999819014754   15.05974854174120  -10.32638391511956
H         0.96535464225877   15.00414953076056  -10.54630769937267
C        -3.37180564719742   15.51382798705934  -12.13824110916299
H        -3.31133115390369   14.69917214845093  -12.85921372945442
H        -4.38589735227818   15.56099062147109  -11.75036686991977
H        -3.15751103914506   16.44050085794489  -12.66966737342003
C         1.48197207186599   15.70662885546668   -5.44302301275880
O         1.44536145029912   16.79320393961582   -6.30960894016546
C         0.25792320447726   17.32886367278569   -6.64406524579588
O        -0.78962638683953   16.99722655860645   -6.16060252116676
C         0.44197305342606   18.38036999958137   -7.70284692117560
H         1.34723223840398   18.94933117630084   -7.51300144002924
H         0.54351855632547   17.87849210200435   -8.66395223739775
H        -0.42685114452715   19.03069773823351   -7.72904942209153
C         2.07115239680394   15.88243024016191   -4.18896329660647
H         2.46936683487532   16.85596229997109   -3.94619069198318
C         2.16823086543248   14.83567111616533   -3.31208164365821
H         2.65844672991527   14.96177776186373   -2.35872680004429
C         1.62959798641622   13.57351606225993   -3.64212202790993
C         1.71369561306519   12.47727572825530   -2.76378969944061
H         2.22663175564344   12.60174329335350   -1.80417901349219
C         2.36144964282514    8.60661780085067   -2.56354681776073
C         2.95888132029605    7.78499924002999   -1.60846151908402
H         2.79059129472830    7.99619501174819   -0.54833277236569
C         3.77366907583229    6.74180417985366   -2.00111495309854
H         4.24005996507517    6.10774034884231   -1.26129558302688
C         4.00295315574326    6.52171452696188   -3.35124475132578
H         4.64670938091538    5.71213052533312   -3.66236239647460
C         3.42282330764763    7.34596918734760   -4.30064176602938
H         3.61803844412738    7.18048722128368   -5.35034818220490
C         2.60011502667742    8.39039483810926   -3.91282310867649
H         2.16323709256664    9.04329101336529   -4.65432133975513
C        -0.35036327001689    9.21233983750698   -1.90180872502893
C        -0.58223749638321    7.84864874874547   -2.03522005877310
H         0.24817424670514    7.16899268021518   -2.17230579993287
C        -1.87840893446876    7.36498043561588   -1.99526985610448
H        -2.05851313597761    6.30530952099538   -2.10431525099011
C        -2.94100142518609    8.23365020588828   -1.81175392754018
H        -3.95024619144486    7.85054961773507   -1.77635824550382
C        -2.71061385712125    9.59315243914885   -1.66641832313431
H        -3.53859870083505   10.26939201529239   -1.51306654585265
C        -1.42023534110011   10.08280992864966   -1.70839047632391
H        -1.22710530275725   11.13962578853489   -1.57976029305882

