87
CSD_code = KIQYEQ | q = 0 | S = 0 | Stoichiometry = C33H46BCl2CuN2O2 | MND = 2
Cu       10.37688824840238    6.19113367585810   11.24166310084750
Cl       11.10460820335942    0.83101068297639   12.90212775450385
Cl       10.29725568276521    0.87212911107096    9.41125480115023
O         9.51871149622533    9.09620874580196   12.29754062799317
O         8.32508618551676    8.42188682083877   10.50881526205428
N        11.00755349715753    3.44505274995399   12.22190574883546
N        10.51614917650772    3.47111652569930   10.12418166752977
C        10.78278093608162    4.27931726660299   11.17846216095177
C        10.88338168582018    2.13399770630777   11.82839394711336
C        10.57390354769124    2.15083017806955   10.50002872260331
C        11.32930852644979    3.86210852694826   13.54601607877090
C        12.67609417866548    3.97594755510381   13.89850113492527
C        12.97452825636685    4.39172343432289   15.18784912305671
C        11.96563335183083    4.66827829131134   16.09175911431895
C        10.64124093064170    4.54093275597247   15.72268017298357
C        10.29492651447762    4.13722910731972   14.43960889131431
C        13.76181684146299    3.71124200691751   12.88159631076619
C        14.14239048100527    5.03441175033345   12.20974051155443
C        14.99196762949174    3.03727696138774   13.48904436648366
C         8.84376424755350    4.00379675075878   14.04588568428408
C         8.12859241893382    5.35134179732640   14.16245547342819
C         8.15589475058985    2.93444678322849   14.89870649552579
C        10.22347046301774    3.91862645924089    8.80320323875361
C         8.90424836687953    4.22599030654555    8.46632308362525
C         8.64839755046342    4.62031982810579    7.15993931877667
C         9.66888369828324    4.71737882136228    6.23399845386975
C        10.97009186298059    4.42764610317770    6.59650900672635
C        11.27263026287710    4.02115659231074    7.88872234376575
C         7.77907740304646    4.10956232615624    9.46551445358558
C         6.96036136052436    5.39899208654417    9.54252969813678
C         6.89021069108522    2.91494391304517    9.10413658989710
C        12.70060945532235    3.72629432735333    8.28379623391764
C        13.54101208424695    5.00169175544373    8.18846407647878
C        13.28970974526041    2.60851182889250    7.42104889300498
C         8.65319237813858   10.18219519216306   12.01146866432884
C         7.63941712293065    9.56596516819995   10.98818356765076
C         9.51225682257549   11.30038079087311   11.40179714203679
C         8.02899378878830   10.69728884031504   13.30904261681672
C         7.26583915501435   10.47596827436882    9.81791282417896
C         6.34697033890772    9.06688044319890   11.65418429664602
B         9.39689569604273    8.07880324795883   11.35002927117417
H        14.00270585020836    4.50364071745702   15.49153644672164
H        12.21609390967988    4.98879282745918   17.09202885287375
H         9.86600913723525    4.76265438271841   16.43900343130925
H        13.36953210523137    3.03776734305375   12.11197096550602
H        14.90129705618265    4.86678766372548   11.44885409539553
H        14.53536720053180    5.73113388695431   12.94633097784288
H        13.27145396065360    5.49049890456019   11.74223946658133
H        15.66078458766745    2.71219517872356   12.69503618785275
H        15.54297139827338    3.72080115344511   14.12917630104138
H        14.70259565662134    2.16673006667803   14.07376518097642
H         8.78097744321341    3.68879088858482   12.99968276579073
H         8.62469870022468    6.09485858685346   13.53989238592799
H         8.12385112013312    5.70363977461348   15.19043396917489
H         7.09840492938207    5.25225397616201   13.82739371679890
H         8.67461750083470    1.98203202514003   14.80858593707162
H         8.14503164686692    3.22016712380365   15.94719142645212
H         7.12802505587111    2.80025626740533   14.56960612490496
H         7.63882237043740    4.85563353286595    6.86340168996222
H         9.44951252428718    5.02574756942157    5.22261647833759
H        11.75892269733343    4.51853717627007    5.86615603813683
H         8.20008400036629    3.93331574840702   10.46011195730711
H         6.44400432009843    5.59440820882754    8.60659509618428
H         7.60075943812004    6.24759346846593    9.77517957919708
H         6.21347942852622    5.30746868130436   10.32828567402806
H         7.47120013923922    1.99507526860766    9.07878935710709
H         6.09765118831720    2.80234420199398    9.84036661198837
H         6.43494672603257    3.05761564000714    8.12712920494924
H        12.72750938508299    3.39181347807087    9.32527640866176
H        13.58424518620413    5.36288154069027    7.16441038128048
H        14.55614268209601    4.80720147080093    8.52737221030622
H        13.10979717531522    5.78311718628226    8.81037586063171
H        13.34694148035057    2.90764174046545    6.37799162071297
H        14.29351148479854    2.36437576305369    7.76175234439677
H        12.67533811400718    1.71307043012671    7.48733658643704
H         9.98896543291143   10.95029175972309   10.48953432143522
H        10.29602614547266   11.55838470452673   12.11123382593593
H         8.91918752843784   12.18644645945875   11.19131286352729
H         8.81387843295190   11.11646238867989   13.93475969478058
H         7.29704121195941   11.47302849801199   13.09619255386204
H         7.55433584050231    9.89244008648615   13.86180185515242
H         6.54816108118411    9.95875742084535    9.18459510164584
H         8.13563318054684   10.71362828319703    9.21356560909109
H         6.81440231894408   11.39587487622303   10.18226952720893
H         6.58583009993317    8.39404334743056   12.47441210455824
H         5.74333400732264    9.89345299314178   12.01910734235690
H         5.77407408691556    8.50693181990149   10.91741894438240

