55
CSD_code = KIQYOA | q = 0 | S = 0 | Stoichiometry = C23H28ClCuN2 | MND = 2
Cu       11.79854170375102   10.88473737910495    3.82416377954019
Cl       11.80154474513746   10.88282366760165    5.89435561056730
N        12.65217186150539   11.52398686955763    1.10505442809108
N        10.93398676453683   10.24771751165505    1.10808905731179
C        11.79458886696534   10.88576932974422    1.92907414756008
C        12.33839306376621   11.29044005672046   -0.21473998583504
C        11.24298146278306   10.48144361382758   -0.21279392553341
C        13.74025764912663   12.32053212250985    1.55214996763694
C        13.54629484186692   13.68486260394242    1.75903414392878
C        14.62458213157784   14.44563262585432    2.18199720502150
C        15.87060057788030   13.87551493396280    2.40331210591238
C        16.02961397079210   12.51158846037274    2.19945841965998
C        14.97628598409797   11.71643504293077    1.77716053853758
C        12.19174937311028   14.29077056497730    1.55694474748757
C        17.01502415032839   14.71008371637696    2.88900540580740
C        15.13592071669856   10.23908340422848    1.58881525767131
C        13.10835697293787   11.87204034106586   -1.34523064302358
C        10.46924273411077    9.89932628153054   -1.34040008481999
C         9.84736716702574    9.45123004378303    1.55879526984625
C        10.04254785421189    8.08736168226808    1.76735185624636
C         8.96564836506864    7.32663164842270    2.19400403906563
C         7.71987124601869    7.89639129658353    2.41731414314474
C         7.55960353408615    9.25992930994876    2.21159608729618
C         8.61147348805812   10.05499141734389    1.78559706861092
C        11.39705680368482    7.48189181365458    1.56366723705403
C         6.57661960751348    7.06257967328293    2.90708438741755
C         8.45044523370617   11.53200562449885    1.59559856407477
H        14.48781291464693   15.50387653932833    2.35079370899044
H        16.99232346978721   12.05649078194502    2.38159103401935
H        11.81182753594329   14.08042002541569    0.55810415141745
H        12.22674597850558   15.36699524987978    1.69891671555868
H        11.49193280872016   13.86640843633242    2.27726115259477
H        16.91286133136209   15.74132219272004    2.55986389041934
H        17.96374920809481   14.31522378165472    2.53329254367011
H        17.03551944674945   14.70423501861635    3.97894119383342
H        14.83466549840306    9.93525946799392    0.58671142275331
H        16.16761842823378    9.94028784691595    1.75024832806588
H        14.50359171722569    9.71085475013102    2.30299781174901
H        12.61211042548771   12.76072086351393   -1.73768704455328
H        14.10311255962684   12.15994151862406   -1.01207569191817
H        13.19606702871693   11.15026659468714   -2.15445400306181
H        10.38961153668970   10.61639979384936   -2.15453514533267
H        10.95764717307470    9.00327664556325   -1.72589063352476
H         9.47138407153037    9.62277067426175   -1.00692367095641
H         9.10348936750591    6.26876058114455    2.36424697163801
H         6.59705147947557    9.71473147731334    2.39531885032099
H        11.77772225873254    7.69595097291824    0.56584710027080
H        12.09645631152966    7.90355325197419    2.28613277939631
H        11.36173311526974    6.40507863247949    1.70176006382996
H         5.62835073779449    7.44700032404757    2.53875259546207
H         6.54799856733889    7.08464403901731    3.99664136669107
H         6.68669053464424    6.02721698790000    2.59392808950362
H         8.75162688761009   11.83527330823421    0.59329761961791
H         9.08204519837721   12.06159498967708    2.30944376334781
H         7.41838353857131   11.82994421811348    1.75651620792411

