33
CSD_code = KIRDOE | q = 0 | S = 0 | Stoichiometry = C14H14MoO4 | MND = 10
Mo        0.00405460334816    0.66938258691240    3.21077483244722
C         1.53730021338450    0.83916125278925    4.37396417938519
C         1.42716792330601    1.58719613997311    2.29614823709076
C        -1.88431670058403   -0.50989802214142    2.55227385629651
C        -0.90749525576871   -0.61089971177232    1.53515799645630
C         0.20079696834560   -1.31568869889288    2.06801743496975
C        -0.11207808482012   -1.66022558838484    3.40883894792221
C        -1.39755236166520   -1.17247207083209    3.69939013657697
C        -0.82276643110279    3.53976254242380    1.51496282174771
C        -1.17029760490651    2.58363011614798    2.62116004096741
C        -0.62950175313030    2.76415186195500    3.90183784727086
C         0.34155283152311    3.78623278457341    4.41341932459116
C         0.60009295567999    3.29037253155954    5.83641657210853
C        -0.92324031687986    1.84313482722224    4.95281184133969
C        -2.31882402929076    1.46252958557163    5.39162714423002
O         2.33487121226022    2.08297855223261    1.79561510085304
O         2.49376768005159    0.91329956578622    4.99907298129212
O         1.33339147195044    3.77194898518676    6.64763428586450
O        -0.15789819628415    2.20861315871982    6.07956773920537
H        -2.90750037416556   -0.18588885718402    2.40317727109151
H        -1.04490250335615   -0.35004285687370    0.49476138865729
H         1.04098073563953   -1.69888837172407    1.50011398129304
H         0.47925702912105   -2.30771701290624    4.04391744696308
H        -1.96272337177675   -1.39145016973911    4.59394338828032
H        -1.45259772292338    4.42995198000335    1.57674390992642
H        -0.99588159170350    3.07981743048823    0.54438036668264
H         0.21701552933570    3.85355487314016    1.56933277917351
H        -2.21010091270790    2.25671784922114    2.57261644430451
H         1.28289638582957    3.88184343920218    3.86752525444293
H        -0.12131308913971    4.77850601168304    4.45527639572027
H        -2.74523119520029    2.29477927466244    5.95642953953064
H        -2.28280746511003    0.60182508949318    6.05490749569867
H        -2.96601657925943    1.24648092150293    4.54558301762143

