61
CSD_code = KIRDEX | q = 0 | S = 0 | Stoichiometry = C24H24F6N2O4Pd | MND = 4
Pd        0.35282602993674   19.05414406459602    9.56466756634727
N        -1.29102882260732   18.23973074684648   10.09759564082499
N        -0.37674033794302   20.47741834438131   10.60468200682301
C        -2.07701505274863   18.96022621240717   10.83107143018131
C        -1.52594241535560   20.25654464326386   11.15709529003968
C        -3.43710125116510   18.53436677144968   11.27974590197356
H        -3.68827237395897   17.56443921974150   10.85727960431122
H        -4.18102582666541   19.26411198852276   10.96365944074852
H        -3.47894299674681   18.47084596721095   12.36641093639243
C        -2.21935423395446   21.21405472875866   12.07080355311947
H        -1.59710036422603   22.08876207957362   12.24417265997321
H        -2.43280694734712   20.73387499522349   13.02458884271975
H        -3.16889495492502   21.53237541574725   11.64227336637114
C        -1.57887466044739   16.96059753879143    9.60361361496384
C        -1.43150873352246   15.83283783700736   10.41919653133158
C        -1.63704000721870   14.58533294423445    9.84841117887347
H        -1.51401059684164   13.70298702128358   10.45762403733324
C        -1.97181861494784   14.46108763941406    8.51217025845286
H        -2.11839263203195   13.48140259963635    8.08534635372287
C        -2.09416464896985   15.58599130798926    7.71505358041154
H        -2.33225476388199   15.48200654790587    6.66759478524753
C        -1.89031305532026   16.85180010349388    8.23973078744323
C        -0.98967518305420   15.98594304153037   11.84289680326237
H        -0.05689622089367   16.55392475732315   11.87804474701036
H        -0.81756280874470   15.01111005911509   12.29000453175511
H        -1.73443950792160   16.51317170827638   12.43847818377573
C        -1.97720312933147   18.09051894728040    7.40041721410923
H        -2.71440821838239   18.78866902327715    7.80278479341170
H        -2.25781247330350   17.83783068367067    6.38170090644225
H        -0.99865488614615   18.60025129552466    7.36961020764513
C         0.40238924745438   21.62992234315724   10.77084067957098
C         1.53435011902172   21.52984317671442   11.59384549865658
C         2.36357947334886   22.63455263346765   11.70055506739287
H         3.24042121510714   22.57632538528762   12.32722467018073
C         2.09125736875086   23.79471979788115   10.99607382285406
H         2.75477144046560   24.64138107880978   11.07776172082051
C         0.98626798208352   23.86595294842209   10.16715438213815
H         0.79781697314234   24.76160673897721    9.59584279130835
C         0.12370601351694   22.78768011692745   10.03575107974186
C         1.81648898731142   20.24312047567532   12.30891465471608
H         1.98685691416578   19.43116109011343   11.58078184119000
H         0.98039855403653   19.95733158489371   12.95074785223683
H         2.70815878836246   20.33900816446378   12.92219384060520
C        -1.03307912554723   22.81268307579967    9.08380138217860
H        -0.95088145609004   21.97576245267836    8.38596777355802
H        -1.03145248010306   23.73811147922381    8.51534841617855
H        -1.98464721108812   22.72935241575933    9.60838372461477
O         1.09670368348041   17.45306039086160    8.48522480014282
O         1.79568336057807   17.10792186825847   10.55827118239855
C         1.71514779971648   16.82251803735654    9.36841498768194
C         2.38959403124213   15.50931175226119    8.86833175272430
F         1.46962233548975   14.66803525025514    8.35836210844516
F         3.28984258322581   15.72901272043405    7.90334699859140
F         3.01172991519070   14.84513318427859    9.84726653366936
O         2.10077221234164   20.01236590490103    9.00571882914669
O         0.63940031348812   20.52902270135335    7.42424181005193
C         1.75528380599929   20.55108680274884    7.93387830681537
C         2.85911895688286   21.40114701985707    7.23559374989266
F         2.75685891870845   22.69154148203768    7.61706887816137
F         2.75825224316709   21.38799197094709    5.90318186617715
F         4.09741672524532   21.00807772275729    7.54588424314716

