63
CSD_code = KIRFOG | q = 1 | S = 0 | Stoichiometry = C17H41FeP4(1+) | MND = 6
Fe        2.44035765223620    3.29295206404209    2.23499338117999
C         2.65952398528880    0.97610343395044   -0.25623253950721
C         4.34823827403783    0.18172345184141    1.78918066425335
P         3.53987982439125    1.71160270076063    1.17751437255983
C         4.95086728685731    2.51873821929909    0.26647397072772
C         5.35784468462954    3.83163471950996    0.92024688794779
P         3.82485218380176    4.73814106088178    1.41632328997961
C         4.49409820693427    6.14869645543214    2.35319945276361
C         3.40724854507794    5.59029589655909   -0.14766351039402
C         5.29574242350541    3.03931251558822    4.37473951583732
C         3.07026917929955    4.18274291420199    5.61020044786443
P         3.47787239706409    3.14717734945014    4.15558435486347
C         3.00722367571196    1.49604511884610    4.83638777674276
C         1.49091190539639    1.40939211914856    4.83749009658214
P         0.86955507585546    2.14747960166168    3.26008269781897
C         0.12805944840250    0.69182262037681    2.42806858586490
C        -0.63746271510880    2.98276253336841    3.87252814934956
C         0.75077268803199    4.14002141463034    0.97698489943756
C         1.24233232938771    4.83493133034645    2.19396449062320
C         0.79638622381957    5.97414181487353    2.69122857605305
C         1.36371701785751    6.63319168998514    3.91025468791443
C        -0.35747400291344    6.72929117993368    2.07958013038469
H         1.44860624590568    3.26865398209722    0.76537124342367
H         0.77895911099441    4.75606804252207    0.07995644303824
H        -0.24809776788071    3.71771234197040    1.09176749600259
H         1.52185706867103    7.69467501710578    3.72598553526471
H         2.30490916399338    6.17177588110266    4.17888592760827
H         0.67149931215447    6.55141529245766    4.74859163770025
H        -0.00950791061554    7.68197361223071    1.67992518169835
H        -1.09969728587825    6.94769671386081    2.84597520553292
H        -0.83600562525019    6.17180964627141    1.28031745085394
H         3.36312153811778    0.41632606155265   -0.87311752518799
H         2.20038729109109    1.76057767011537   -0.85777442604899
H         1.87916778309354    0.30259518315716    0.09332144284613
H         5.09322653137223    0.41228459348725    2.54843565559550
H         4.83153042774575   -0.32482458418490    0.95308353875306
H         3.59692983537405   -0.48239646544168    2.21628775564003
H         4.59207084847407    2.71446520633653   -0.74885793258755
H         5.79433176673554    1.82685546450501    0.19956342962384
H         5.94479840564551    3.64750773153614    1.82169390020621
H         5.95739009439788    4.44534895934758    0.24180662306682
H         4.74589770504987    5.84701639294269    3.36688336371975
H         3.73263111803240    6.92486129922467    2.39266668345397
H         5.38191756358082    6.53210043793341    1.84857685365014
H         4.27828401331496    6.15309219991992   -0.48501637364559
H         2.58513183859023    6.28101881977437    0.03350178254958
H         3.11893420249720    4.87539631815400   -0.91770881661303
H         5.71233223196958    2.30316841877557    3.68982837092258
H         5.50602335167643    2.73510085051113    5.40055575379753
H         5.76580905740943    4.00372896046872    4.19128767366608
H         3.38793907100117    3.66694971694622    6.51717715719090
H         1.99900795716283    4.36541622602038    5.64165205497284
H         3.59119376531167    5.13602111605438    5.54803386398482
H         3.42705848908559    1.36091525241981    5.83713137385961
H         3.42885502728043    0.73370457377276    4.17987999521787
H         1.13803804239114    0.38004062546986    4.94200372092596
H         1.08371029499203    1.99951520022486    5.66284835102500
H         0.90462068915347   -0.05130358013909    2.25052631289573
H        -0.30371814784443    0.99168673601314    1.47334156595591
H        -0.65208943827829    0.26137272752376    3.05587376370729
H        -0.34904838617697    3.88411267186244    4.40976025625468
H        -1.17474852717506    2.30510456916434    4.53700477925199
H        -1.28567304273930    3.26455991224590    3.04554255137636

