50
CSD_code = KIRFAV | q = 0 | S = 0 | Stoichiometry = C17H23N3NiO6 | MND = 7
Ni        7.27059292814337    7.12932730034709    4.28231657718861
C         5.20228964077364    7.91408139149847    6.41552758813367
C         3.97080632101862    8.19152020786077    6.99642936646214
H         3.90962587667588    8.49535075705768    8.02985572119192
C         2.82925993816438    8.07051172588300    6.22023259953781
H         1.85841161203925    8.28278943770796    6.64244014770432
C         2.94522790885016    7.67543342112976    4.89732930364007
H         2.07360352969024    7.57605456758290    4.26930973936037
C         4.21192336511624    7.40822735675365    4.39154864241613
C         4.45101782849718    6.98043395573376    2.96307773540074
H         3.55802243458925    6.47080514424828    2.56514262145044
H         4.62637130079505    7.88749049846473    2.37448503171530
C         6.18914112253731    6.02500835044129    1.54852283577549
H         6.22204929548318    7.02105655825943    1.10162391220278
H         5.58022921804765    5.35632398075096    0.91712861466444
C         7.62417212201199    5.49767333872158    1.60758192023528
H         7.65758525726729    4.50018550787753    2.06881788795429
H         8.04013741906859    5.42798488261733    0.59037950954406
C         9.69296444713070    6.02702421941941    2.64686250731901
H        10.26608780648903    5.92831953884082    1.71259628143794
H         9.70136415361730    5.06922138118750    3.18645438855918
C        10.30327371676254    7.11232720993283    3.52889884234988
H        11.35394882868021    6.87417033661726    3.75372587968754
H        10.24846295961812    8.07998886801200    3.00996175536962
C         9.93205167638873    8.14520928820156    5.63540003642315
H         9.95619888522870    9.13133193121008    5.14961621326207
H        10.93609839435270    7.92328167337669    6.02945126114859
C         8.90865388490113    8.12044346459991    6.77251860358094
H         8.91563134057405    7.11561880770060    7.20053113310215
H         9.20116275468589    8.85278341503269    7.54364165121567
C         6.50713819322385    8.01004613345412    7.16947532274646
H         6.40889506607758    8.71572132287313    8.01078320565325
H         6.72867068770957    7.01532637448852    7.57122655135345
C         7.43134314165393    9.76474083203309    5.78200930835721
H         8.13563242830106   10.44481841058780    6.27676895965724
H         6.41962014265458   10.12705084694315    5.98569829024472
C         7.60566132658744    9.86302102441508    4.23525293666459
C         5.43294371943290    4.84014461639947    3.52073482355695
H         5.27908046473293    4.04570936082778    2.77989623669588
H         4.54929523967692    4.87246325801353    4.16443161919885
C         6.61801012185878    4.46127181129882    4.46108911699297
N         5.29299181573748    7.53309695268610    5.14869700398078
N         7.57459693830498    8.38306256684033    6.25240736593168
N         5.64331079472153    6.14841449460153    2.89248583959826
O         7.28620237070241    5.43119310326815    4.93492352284620
O         9.54450143660568    7.14817243464243    4.71651149046952
O         8.36839072316568    6.42245582706232    2.36920252563179
O         7.91122364667174   10.93576254646612    3.74432770407466
O         7.37031699479515    8.80313565654893    3.57734627601515
O         6.81340878018742    3.28641390948250    4.71952359229670

