82
CSD_code = KIRLAB | q = 0 | S = 0 | Stoichiometry = C39H38NiP4 | MND = 4
Ni        3.59700344504649    5.27348771873986    4.60324923363919
P         2.86646002902300    4.78357750353512    2.60596561758570
P         5.49975731580764    6.01397053463732    3.83594121120943
H         6.90018671610858    5.90150741259774    3.80301782129801
P         2.94372044227592    7.28795544738512    5.13326815263073
P         3.31740815527574    3.74679560955128    6.15606081562545
C         2.91948040953273    3.08803747108660    1.92345730256973
C         2.00680350443366    2.53570686713707    1.03543901621182
H         1.15398514101101    3.11033228264759    0.70208557384060
C         2.18735125649632    1.24095015423873    0.57891399178849
H         1.47264350324652    0.81280947430119   -0.10985808946332
C         3.27678686036633    0.49526053580315    0.99565671548165
H         3.41117515432233   -0.51385248000546    0.63379483330064
C         4.19441222185725    1.04485544626861    1.87798416952192
H         5.04640251235370    0.46440284959624    2.20305070216985
C         4.01228970278782    2.33259922152355    2.34042365265003
H         4.71159448216517    2.78077471679243    3.03955902015987
C         1.30834967823788    5.43428522576945    1.93268535218442
C         0.13682474853396    4.81682231326405    2.36736486227470
H         0.21109809363567    3.96216758736688    3.02879133657633
C        -1.09661151662843    5.28471444366883    1.96103680827851
H        -1.99959845435042    4.79133847886909    2.29205314054640
C        -1.17489236180454    6.38986781783347    1.12815655581007
H        -2.13816262185364    6.75525441440402    0.80313344226713
C        -0.01732632966560    7.03387817872396    0.72726763231891
H        -0.07778350815392    7.90760083804767    0.09424744403871
C         1.21995036993743    6.56818478023093    1.13500288515696
H         2.11844152422682    7.08761507951099    0.83258993077798
C         4.13083505380846    5.46881001169861    1.46831253218038
C         5.30472962786924    5.99556925360347    2.01210494586986
C         6.30438016563547    6.45571561433657    1.16169004515857
H         7.22234748744120    6.84862794979318    1.57510619579554
C         6.13636736286303    6.40306875572026   -0.20929519680024
H         6.91691623633105    6.76632535837981   -0.86244015555350
C         4.97485897088625    5.86972683509414   -0.74745588979918
H         4.85166219459260    5.81425818789042   -1.81951069099273
C         3.98124886892164    5.39526569132004    0.08788561797873
H         3.08410087830389    4.95681298231159   -0.32766317130547
C         5.49538563198204    7.81827288603298    4.14926284676938
C         4.34458083748521    8.38813471434078    4.69991073064019
C         4.31050404003225    9.75021392868268    4.97613158342738
H         3.42376805542421   10.18169479400156    5.42071565475453
C         5.40594723309287   10.54550736602582    4.69563744791564
H         5.37439747968600   11.60399218012937    4.91047951487512
C         6.55164993073471    9.98086965148588    4.15605611785397
H         7.41376323117549   10.59975528366271    3.95229759163650
C         6.59873152627288    8.62467637327402    3.89121002735624
H         7.50482574905055    8.18673168518457    3.49638371263062
C         2.77804675423936    7.85079603663740    6.86543572187387
C         1.80686559480804    8.71159163206385    7.35786218154429
H         1.04660577635908    9.10854066982426    6.69974793516089
C         1.81102597154247    9.05976566307298    8.69833690692919
H         1.05229296870669    9.72899868390684    9.07900801013769
C         2.78023604693778    8.55943475615353    9.55102569389171
H         2.77641960429129    8.83605469874883   10.59539112164743
C         3.75365027463617    7.70023529588765    9.06380067239408
H         4.51027408244386    7.30724924808343    9.72824805394489
C         3.74695889482750    7.34660231635020    7.72959213628492
H         4.49004359900604    6.66577956228171    7.32699138228565
C         1.52879861513629    8.10338587058953    4.33161785318260
C         1.63527763867579    9.07048002832513    3.34056958720881
H         2.60930567766397    9.41476888762038    3.02184947304829
C         0.49352832469027    9.59601334275232    2.76130358460228
H         0.58250225882385   10.35994981956236    2.00166139174554
C        -0.75770344667430    9.14878163568962    3.14831101586862
H        -1.64571013922329    9.56621071586776    2.69641262815122
C        -0.86940464499528    8.15269264406551    4.10584418861283
H        -1.84434568496942    7.78551719147318    4.39317333353021
C         0.26735424417908    7.62851577886862    4.68659372907007
H         0.19654489183336    6.84065543944659    5.42659087714455
C         4.71149903436146    3.28579309105698    7.26296396894013
H         5.54226753561872    2.92837360831972    6.65700244533342
H         4.40973589243677    2.50945582588934    7.96506084423902
H         5.04112516512121    4.16521252987280    7.81273623771302
C         2.02925012677691    4.10292438732497    7.41956846070410
H         2.26969875295070    5.03462930244191    7.92927806906902
H         1.96005782781483    3.29352198584862    8.14561423716713
H         1.07077255350111    4.22467318007734    6.91756420508424
C         2.77032676862002    2.06243753572427    5.65731836623484
H         1.86906547282947    2.14482719059982    5.05201329921629
H         2.56869793906287    1.44533739858641    6.53232363345526
H         3.54248459209367    1.59406462055204    5.05033016364234

