42
CSD_code = KIRLAY | q = 0 | S = 0 | Stoichiometry = C17H20CrO4 | MND = 9
Cr        1.56783101526688    1.66127268399453    2.16485682109092
O        -0.15683732668006   -0.58179603666133    3.93038729232936
O         0.30273922925494    4.32804638996039    2.52955170500202
O        -0.91681639281363    1.53133302916130    0.53939401046243
O         2.43453448910539    2.96308527968378   -0.36722516555862
C         3.41277646311463    2.55971691269974    5.05788358485585
C         2.27773453799400    3.31971418708285    5.74840156896513
C         1.38934268593980    2.33231878051641    6.49159883758754
C         0.66177296297966    1.44159577368193    5.49277687751506
C         1.05281936084285   -0.06957219295046    3.55801836930437
C         1.82137772162223   -0.57231179968450    2.48838043291715
C         3.07953303976924   -0.02756770363264    2.23736244282838
C         3.58224102308671    1.00548635302287    3.04805304200984
C         2.82972783697400    1.53372598505070    4.10322474047767
C         1.53967415600689    0.99194783483684    4.35069129158504
C         4.47383827232850    3.49878406598368    4.43912110384498
C         5.17892381861404    4.31689151485232    5.52379329069353
C         3.91140542966173    4.43207628698732    3.37066927523841
C        -0.83723965709083   -1.42862167662976    3.02989219139270
C         0.83132995815818    3.30164880211439    2.43153515520888
C         0.04631863026494    1.54582752059199    1.18482786430038
C         2.14840210383531    2.44086338751121    0.62527330057337
H         3.93838339668513    1.98158666965309    5.83602485495668
H         1.68406888472715    3.85426581636659    5.00570762614008
H         2.68916646549044    4.04198819647622    6.45197611766234
H         0.65846002073824    2.86207748824818    7.10421623077276
H         2.00355856281284    1.72387602425489    7.16119044783842
H        -0.19013600623753    1.98460752157299    5.07165401879446
H         0.25420675123709    0.55912569966796    5.99362072013804
H         1.47807332417714   -1.42306919988536    1.91516881240295
H         3.70869862032119   -0.45994441426664    1.46836364866364
H         4.59579161091241    1.34023504258625    2.87440293853893
H         5.24657442929199    2.87372975240188    3.97934882593117
H         5.52490835346658    3.67843603966540    6.33451516471768
H         6.04266483742685    4.82199015164656    5.09775354477951
H         4.52163163332091    5.07774599280812    5.93552495023356
H         3.40663011604431    3.87837467554297    2.58004523172978
H         4.72080264902951    5.00567026963721    2.92495485662065
H         3.20406530828259    5.13361302506069    3.80317232720218
H        -0.93973601643405   -0.95851878984637    2.04725376708078
H        -0.34082317605513   -2.39960763513473    2.92992121618553
H        -1.82441912347272   -1.57834770462955    3.46351666698679

