43
CSD_code = KIRNOR | q = 0 | S = 0 | Stoichiometry = C20H12AuF8PS | MND = 2
Au        7.01580480565991    6.36479346164600    1.04076623018237
S         7.26262411071277    7.35015134726923   -1.04409003327028
P         6.68335997312365    5.52421361921007    3.12663143021772
F         3.70581361440655    5.19158323323988    4.23918070947572
F         2.11253321228836    3.05426150278968    3.87356063800940
F         3.02440221989660    0.86358988657309    2.53754341386015
F         5.56736223413367    0.83909194632840    1.54002276721623
F         7.16805699705351    3.03508438974144    1.90495454482961
F         9.08266997040771    9.55810038199795    0.12377144118792
F        10.96950257592812    8.62680453497259   -0.30448297750553
F         9.63346109940407    7.73471467396383    1.11485760354521
C         6.00251012388319    6.72111657544446    4.30276910918059
C         5.40413712282404    7.86501570670104    3.78402986260790
H         5.36127399070726    8.00449201544184    2.71098409702006
C         4.87285665487362    8.81151815458094    4.64050159088529
H         4.40489539086045    9.69701455161221    4.23829267823702
C         4.94612938588342    8.62193281178856    6.01064428206799
H         4.53111496303771    9.36080445343182    6.67935667817543
C         5.55465428830384    7.48860359086671    6.52775582794121
H         5.61417529225231    7.34656076660626    7.59647926955873
C         6.08775273297381    6.53654620736020    5.67991648447413
H         6.56780798529555    5.65509344302809    6.08165434581340
C         8.10169923834176    4.81708751605368    4.00445884776789
C         9.32937582216283    5.43344266400327    3.78181235133870
H         9.39076520583163    6.26265959672747    3.09066334275759
C        10.45803531202412    4.97543580760919    4.43636760626434
H        11.41030680121244    5.45201947210408    4.26086003447636
C        10.36486008652230    3.90237918834284    5.30790781848722
H        11.24647803645542    3.54060224955992    5.81492526961740
C         9.14252089964445    3.28754796243819    5.52846641801275
H         9.07215675355197    2.45033687188805    6.20692249065266
C         8.00719343675995    3.74015455790364    4.88152486268217
H         7.05495113362553    3.25574783370691    5.05457450363541
C         5.49934431366110    4.13570805030137    3.11098167587472
C         4.19061884250245    4.13550601009868    3.58422851442525
C         3.35647917280907    3.03636212108221    3.39501135143468
C         3.81923272977060    1.91572221771682    2.71079871757788
C         5.11931719233076    1.90297576406144    2.20406774762439
C         5.92722936777193    3.01124663459478    2.40255544156273
C         9.06068071101333    7.56472827713403   -1.19964329302953
H         9.56180073221212    6.59558356169736   -1.23049024499141
H         9.23349846923992    8.10243680505093   -2.13244134023047
C         9.66365699865097    8.37522958342334   -0.07945210955693

