40
CSD_code = KIRNIL | q = 0 | S = 0 | Stoichiometry = C19H10AuF8PS | MND = 2
Au        1.76646371798189    5.27162275574759    9.62653084126147
S         2.38365307533171    5.89938799427833    7.48325890312033
P         1.10084074993924    4.68340468462330   11.71194104567246
F         2.16572078161216    7.19105154186960   12.39192770158292
F         2.80493468621494    2.67995369542904   13.53230312474480
F         5.55845233508234    5.97556283096479   15.44131767760610
F         4.84058025584363    3.36546216958466   15.15517785918045
F         4.22157202698151    7.91486475795286   14.06183727048622
F         3.28481384480060    7.99312552553201    8.77618810279305
F         1.22035355809280    8.12776714417151    8.22295869508276
F         2.74623666738360    8.35425331942902    6.72958924208747
C         2.41996657128998    4.94100743821198   12.94858401371264
C         2.82757838823506    6.26826798253792   13.09371073816351
C         3.12937001836478    3.96881594268485   13.64607288040218
C         0.60426950561892    2.95090795185324   11.88428930285490
C         4.18586548103558    4.31366555695732   14.48590545008543
C        -0.26994588547431    5.63527296524325   12.41242123992453
C         3.87168849060579    6.63887156050486   13.92759126636090
C        -1.19312546720872    6.15780717229988   11.51234423111987
H        -1.04618596772263    6.00379091937212   10.45118324147681
C         4.55612492320527    5.64774880134033   14.63253090771933
C        -0.29590814008959    2.52245794532988   12.85486824501791
H        -0.72641163729558    3.23025940820901   13.54899883542643
C        -2.27594986456097    6.88045872193895   11.97829665471973
H        -2.98900918580434    7.29029720797233   11.27972744203269
C        -2.43488819676093    7.08693589071673   13.33912095555883
H        -3.27536455070580    7.65790151156206   13.70323720470736
C         1.13861911076075    2.04381148177215   10.97334025998592
H         1.82137940150486    2.39581381691273   10.21015619220538
C         0.79422314082404    0.70761863475320   11.05116849101163
H         1.21325875436753    0.00291307127674   10.34935054337105
C         2.41242698963477    7.64466235806978    7.80467766427311
C        -0.63769365071040    1.18452786817886   12.92157690867693
H        -1.33361071137179    0.84774309573641   13.67518100608431
C        -0.09173372498453    0.27838983442770   12.02620399834476
H        -0.36252118285820   -0.76481380021503   12.08557269960033
C        -1.51327221553538    6.57020729025439   14.23633922552498
H        -1.63670245623822    6.73738822979361   15.29594556033914
C        -0.42923520400631    5.84298389804273   13.78023664660680
H         0.29346556661272    5.44513082469344   14.48103773107371

