36
CSD_code = KIRNEH | q = 0 | S = 0 | Stoichiometry = C18H10AuClF5P | MND = 2
Au        3.78394513015756    0.36819314048869    1.78534256408436
Cl        3.14492691041063   -1.58695082781517    0.85628699638099
P         4.42307068537195    2.26009919701853    2.81257355514562
F         7.45680739400613    3.21655405445645    2.61136633246956
F         4.24945585083526    5.21258864290818   -1.31414161971304
F         6.91106615909100    5.82023292879851   -1.26307381250295
F         3.21126199426975    3.58627130810707    0.63265304841496
F         8.49779762158610    4.80307605272925    0.70218750449480
C         5.54806371251917    2.02509382092409    4.21231988212298
C         5.76662186217460    3.02445221986048    5.15700663845346
H         5.26751450406790    3.97887311227991    5.06406632306530
C         6.64679406872953    3.70419134414400    1.67087485195609
C         3.11022760778336    3.29912741773211    3.50446959785350
C         7.19618219655477    4.51772024536625    0.68248493793275
C         2.00730732234327    2.62366211051657    4.01779006646791
H         1.96733060710281    1.54414520368883    3.94475002768908
C         3.17304419972318    4.68780698027287    3.57070902096938
H         4.02465457957039    5.21852854889382    3.16511408689455
C         6.62525925434545    2.78638727237330    6.21285103329662
H         6.80132657354413    3.56067316354535    6.94447422465333
C         7.03170755793383    0.56079449879958    5.40143903735233
H         7.52049986622848   -0.39642534003601    5.49979431926283
C         5.02730015796504    4.72857694388429   -0.34838652682988
C         6.17433495520601    0.78971041509837    4.34078033632845
H         5.98236179346538    0.01674359197564    3.60727941460840
C         5.28748546824039    3.40791468315811    1.68530615562791
C         4.50589901941011    3.91450823473626    0.64569366662358
C         0.97349882969984    3.33277492726704    4.60029112503305
H         0.11697672742773    2.80849949850729    4.99566939860135
C         1.03590575987010    4.71550272249343    4.66562858627629
H         0.22637702480851    5.27121984368732    5.11379205433230
C         7.25825880964919    1.55877585707310    6.33471575894791
H         7.92753246439151    1.38002876589134    7.16260974262792
C         2.13174355750157    5.38938221787499    4.15059030826207
H         2.17570782480611    6.46725802735457    4.19831737177178
C         6.38785194923740    5.03700917598182   -0.32492600897737

