87
CSD_code = KIRNAA | q = 0 | S = 0 | Stoichiometry = C33H49ClP3Rh | MND = 6
Rh        4.38511522416396    4.22765867733937    1.84103378531648
Cl        2.32208626439621    3.76633432349712    0.84991222845779
P         6.08950426549093    2.52628091925366    3.50690740152115
P         5.34946775285259    2.55016679311857    0.67013271980843
P         4.76972381784784    5.89155405609939    0.23097031554794
C         4.28370190956653    3.03460835463101    3.63354003360644
C         6.29965935939003    1.80858310927351    1.83395319987554
C         4.67481300545341    4.36905399867765    3.99556382888295
C         5.95971598172808    4.38771669045739    3.34526884059334
C         3.21991546040004    2.14311526830702    4.22964949644991
C         3.67176742893968    1.76561276308666    5.64654382395408
C         3.12660405097692    0.88314353230107    3.36552156514132
C         1.84753342446537    2.81771778584611    4.29139584978142
C         7.23169488235003    0.63860891732741    1.64542239846664
C         8.64774625617202    1.06566987240429    2.04459348450761
C         6.78264562052792   -0.51272137444478    2.54970687518862
C         7.21786309215511    0.18596553636613    0.18638305355036
C         6.57109612058261    6.41878341957321    0.10131985816952
C         7.40762405019823    5.31910630554955   -0.54580752828521
C         6.90901511907916    7.77013191553745   -0.52355384480134
C         4.06561542967421    5.64004444243184   -1.48800991681787
C         4.32546957493589    4.23814133173221   -2.03280760163676
C         4.45647186232875    6.68912545965110   -2.52494800067892
C         3.93120666849642    7.50043991947465    0.69536299776839
C         4.43617622703795    7.96112485577530    2.05947330247820
C         2.41169642799274    7.33890588196196    0.72553683209647
C         4.02022622088563    5.33810402477232    4.87963288319088
C         2.82779047094675    5.95873628533573    4.51374982031244
C         2.22143301848002    6.86142646275634    5.36751938636588
C         2.79221000656979    7.14434262012286    6.59736593394522
C         3.97210396248434    6.52160182250875    6.97206892913363
C         4.58788939582957    5.62519129495735    6.11882927410875
C         7.06793830250643    5.32544642632949    3.42298336493982
C         6.96201810659899    6.60884200393521    3.96494019250698
C         8.05548686560673    7.45372206820837    3.97660193169299
C         9.27123983769992    7.04258851955308    3.45517872834987
C         9.39266254788351    5.76657400255545    2.92669347068179
C         8.30491971651678    4.91933985884145    2.91360272787695
H         2.37601337926006    5.72516805947668    3.55579196930117
H         1.29954458242861    7.34114326887121    5.07293845703440
H         2.31699697093770    7.84718297417815    7.26551793417648
H         4.41578704220644    6.73602668669752    7.93341837224422
H         5.50984088907298    5.13756287091259    6.40477804413337
H         6.02439739916356    6.94600874346277    4.37937995919472
H         7.95634028926753    8.44361043190539    4.39898853509947
H        10.12012136574920    7.71006143549914    3.46596609134982
H        10.33974013664536    5.43455678934836    2.52612248157848
H         8.38849384762077    3.92357054710636    2.49946995137839
H         3.74270683787459    2.65199152988553    6.27518690458460
H         4.64897168045231    1.28227545471429    5.61744298488306
H         2.95931117454370    1.07713120073915    6.09613243405024
H         4.09903880075314    0.39448298451530    3.31548576174781
H         2.81568291599403    1.14791277308628    2.35572567947739
H         2.40543303980310    0.18276995930845    3.78063829228912
H         1.10068187748241    2.09599169459188    4.61651288428719
H         1.84886463725699    3.64725284524325    4.99487657139532
H         1.56037901644810    3.18180400088916    3.30728374560109
H         9.00553006548314    1.85618474398958    1.38752121609574
H         8.65369232514017    1.43030394930720    3.07198764620336
H         9.33231277317935    0.22307005666351    1.97396892889704
H         7.48510617059264   -1.34115046186000    2.48720801830031
H         6.73417942298896   -0.17868708932245    3.58643982558683
H         5.79973977469354   -0.86884424210521    2.24882213861546
H         7.88249255714403   -0.66374210577373    0.04598324965719
H         7.54420800249339    0.99481731109287   -0.46501408388836
H         6.21162636449812   -0.10635045672157   -0.10821726523515
H         6.86601300612042    6.46720582221380    1.15803080111814
H         7.15506726609414    4.34667229772364   -0.12107289829641
H         7.24650872253575    5.28550716452511   -1.62061333986345
H         8.46581844052320    5.50515156751529   -0.36663003356188
H         6.33948450275483    8.58291958292997   -0.08249260186598
H         2.98655334235889    5.70861683700265   -1.30599051203710
H         5.38692266656582    4.00986821415078   -2.08546809593162
H         3.83398846243729    3.50006506677655   -1.40435797537675
H         3.90658167586170    4.15669220247223   -3.03477116409186
H         3.80035377951928    6.59608047214359   -3.38975967037480
H         4.36111444829855    7.70270177748083   -2.14477014003276
H         5.47605544733814    6.53186465623253   -2.86792580288034
H         4.19163022963314    8.25462435408859   -0.05560521188855
H         4.19946398231043    7.21278377643874    2.81464988005702
H         3.95103349246367    8.89333488980296    2.34819277118798
H         5.51186263285784    8.12333866822842    2.06034439626334
H         2.13053498558862    6.40599191921634    1.21265438730922
H         1.95975487302803    8.16354550261177    1.27531421833713
H         1.98890045091533    7.33450932348255   -0.27604836332373
H         6.74861123533775    7.77341833348473   -1.59646559505167
H         7.96456528907046    7.97521347066555   -0.34450341980956

