59
CSD_code = KIRVEO | q = 0 | S = 0 | Stoichiometry = C29H21FeNO6S | MND = 8
Fe       14.77444978241771   10.43013701221385    3.82264256870090
S         9.99796266919418   10.35368488576113    3.82378293494259
O        16.26853514640401   11.75682298264269    0.89098904852951
O         9.13538515924153    9.43976581927692    3.13986544910940
O         9.45026077204861   11.51827640785574    4.45077960186832
O        14.35756432590310    7.72727313451046    4.81935796197490
O        14.45511137589938   11.56842573316603    6.48131937164106
O        17.71725577495836   10.35226192450154    3.87312075359619
N        11.08604125186836   10.90991040741925    2.68447945740408
C        14.56387868747171   10.14080596668779    1.56779947749340
C        15.29113028865749   11.45777960324143    1.54522791493867
C        14.55260212483606   12.30051648606026    2.54921115494109
C        13.28532346642960   11.67926379818674    2.75206452028163
C        11.86923523158172   12.09785052629092    3.00557568977360
H        11.62569181717772   12.41682048341645    4.01916258837405
H        11.59847750421755   12.91688813244214    2.32405055353680
C        10.93329633475234    9.42577359780279    5.03928550974912
C        11.54948676954574   10.08916066879246    6.08215526160536
H        11.46729366599121   11.16226105389627    6.14883345812957
C        12.21539628111108    9.36027035523840    7.05254814368650
H        12.68866238809971    9.87417674240282    7.87591465450934
C        12.26715138260489    7.97194619380548    6.98772916354792
C        13.00306726543764    7.18246710336541    8.02297603041958
H        12.45997211347202    6.27459543509299    8.27510294880314
H        13.15733274675870    7.76786448801181    8.92543343725746
H        13.97873871256021    6.89076011202174    7.63356096046607
C        11.63169377705356    7.32380886270576    5.93186203594870
H        11.65608621240291    6.24562791910356    5.87823032807137
C        10.96387298518244    8.04589186667982    4.95993632637546
H        10.43442992153024    7.55730485671004    4.15661410820067
C        11.88394298043458    9.89931726416305    2.00103588458935
H        11.61799135394236    9.86589102624055    0.93524500141166
H        11.66975524348371    8.91965064881949    2.43132167784437
C        13.29281320363816   10.38642221774331    2.15849900955547
C        14.86604639583200   13.69398087214585    2.86549981645575
C        15.83517698453103   14.40016976885909    2.15127192418081
H        16.37705644844652   13.90633741900200    1.36144083377391
C        16.09691530059149   15.72422544732823    2.45049820331734
H        16.84603039920972   16.25919275129780    1.88588763040291
C        15.40845187197263   16.36405905378660    3.46700682656516
H        15.61656070425591   17.39791862588249    3.69866498665402
C        14.45481726459704   15.66742926645473    4.19306652368996
H        13.92108341957417   16.15682631260655    4.99435769464713
C        14.18666371751897   14.34617900464687    3.89840932380872
H        13.45784452206310   13.80428463588434    4.48289141084085
C        14.89023584751943    8.98638780830926    0.73103187141548
C        15.80802536654401    9.08463904869133   -0.31536108577611
H        16.30326348528504   10.02376709840351   -0.50023976781177
C        16.07860445155764    7.98683558176161   -1.11108349487297
H        16.78734331641249    8.07813376813590   -1.92061361672523
C        15.44976414943412    6.77629630888652   -0.87507095236959
H        15.66466803947597    5.92094937271717   -1.49798271856235
C        14.54814703870725    6.66406858425190    0.17215720171252
H        14.06293184309055    5.71946801446658    0.36896046499199
C        14.27135261302517    7.75617581265512    0.96906686490809
H        13.58672726357200    7.65705466168444    1.79935606268889
C        14.47271468733798    8.79340565965266    4.41894107873361
C        14.53367393491376   11.12148889380052    5.43150175466040
C        16.58121221822018   10.40285251241981    3.81332817538998

