81
CSD_code = KIRVOY | q = 0 | S = 0 | Stoichiometry = C29H41FeNO6SSi2 | MND = 8
Fe        2.97226445523931    1.72084069818014    2.15650240250545
Si        5.68935861810685    4.04855869746811    3.24255234841889
S        -0.35111362423929    3.53839040875907    4.98158913380513
Si        3.55076955260332   -1.38879259632486    4.13703398483911
N         1.17625268027016    2.95393610353760    5.29117331818934
C         4.85730035452498    1.22949449357523    3.65361317047531
C         2.63304578519847    1.43854712769671    4.29525533574923
C         4.43987576930645    2.65468148339491    3.50230042698501
C         3.15225675126660    2.74622809335478    4.08519647169837
C         3.58298955532571    0.48079837939835    3.85832744675135
C         2.29958024129122    3.74598682648339    4.79995712570322
H         2.84712385123733    4.17329577250746    5.65049690958639
H         1.93134834526952    4.56806121190558    4.18442053389093
C         1.41785565700287    1.51917591104126    5.16229567985530
H         0.52188232995845    1.03113795074557    4.77945763701956
H         1.63433467975903    1.09884892496640    6.15380463956797
O         5.98238119762395    0.77422050377830    3.57395158141914
O        -1.26305329973978    2.54258308285061    5.45901803611607
O        -0.39249555575606    4.86072392378721    5.52910941466515
O         2.14517976977866    4.02696924898785    0.59999680802812
O         4.92875951140808    0.68430453473639    0.23163307538705
O         0.76837623228131    0.13977707396605    1.12936076345102
C         4.48372173519092   -1.80128676196472    5.78219136727845
C         1.71569424630869   -1.90046311070871    4.23929144521434
H         1.15747298265683   -1.51245296256356    3.39351086251174
H         1.23681415171517   -1.53967066669832    5.14347772270348
H         1.61709863820665   -2.98011400061174    4.22508306097005
C         4.36421884984439   -2.18287152083581    2.61009188841844
H         4.47816014835809   -3.25657177389948    2.71895731093468
H         5.34830889536272   -1.75774759445063    2.44085296258748
H         3.76725744477165   -2.00210947608313    1.72001429496064
C         5.99298194089597   -1.86426216211890    5.53848133725079
H         6.35391027030051   -0.94054449650958    5.09559233398549
H         6.23927690455633   -2.68175526306559    4.86580677403080
H         6.52012264372787   -2.02619469366033    6.47819866918580
C         4.01806662344990   -3.15682174263754    6.31953488234667
H         4.57032450948299   -3.41237452514508    7.22311931861078
H         4.18777660102289   -3.94203541229055    5.58654381856574
H         2.95877070255924   -3.13914454599658    6.56289207026330
C         4.20144430343028   -0.73068025276109    6.84036554221610
H         3.13600094156693   -0.66046677314223    7.05199883827619
H         4.55462084778810    0.24275677661972    6.50664492584626
H         4.71425944401081   -0.97567896779229    7.76991419164424
C         6.84591843118482    4.16116575050782    4.79080897639941
C         4.68075101270824    5.65248243168441    3.01386861646929
H         5.31800196562160    6.46092622589653    2.67349343066588
H         4.20622319214285    5.97526678957818    3.93452727489087
H         3.90129433431924    5.51725255604391    2.27075335051416
C         6.63929612565557    3.64835875913880    1.64232197256966
H         5.97504886261635    3.68294595350205    0.78278344213573
H         7.06430179944654    2.65110733656190    1.69298400277751
H         7.44935372739961    4.34768747658222    1.46206016772737
C         6.05575877267846    3.87498048121407    6.07120016103365
H         5.64421596278203    2.86807913975325    6.05216790136121
H         5.23796875688877    4.58280480409066    6.19424198270187
H         6.70665982420693    3.95746206505649    6.94093835464284
C         7.98382338534873    3.14420953077529    4.67956903193060
H         8.59244767344926    3.16002102528985    5.58307035067166
H         8.62566414829111    3.37675381972140    3.83375323845781
H         7.59424058446440    2.13940655071313    4.54404309371146
C         7.45038888889602    5.56401529496570    4.88944149397897
H         6.67720352580003    6.31531391921080    5.02870559056608
H         8.00746170372389    5.80929307426253    3.98826327286643
H         8.13431174443313    5.61907123795933    5.73549960340573
C        -0.90607260174517    3.91933986027523    0.46866580611702
C        -0.52145080598545    3.67351831972432    3.20319621990403
C        -0.89424475663536    2.56572383716537    2.46568628155031
H        -1.06792607351288    1.62878496177718    2.97031683205885
C        -0.34985647728896    4.90303179426905    2.59793562612223
H        -0.09912046032269    5.75594508198411    3.20928085839207
C        -0.54055628360965    5.02238069423522    1.23195741433088
H        -0.40938485827762    5.98246792640098    0.75564335871587
C        -1.12378467994480    4.03760686454494   -1.00683209505214
H        -0.84169041941882    5.02321014588281   -1.36598575682351
H        -2.17290325162414    3.86742582349936   -1.24584438747884
H        -0.53712368862711    3.28899083345247   -1.53640381258614
C         4.19911907919449    1.08309016463042    1.01036313795888
C         2.44087200260422    3.13049351551704    1.24844332582921
C         1.60339538470177    0.78280515133766    1.57752763070885
C        -1.08469214338398    2.69190831470154    1.10200920076209
H        -1.38469007109513    1.83299455962651    0.52023518811527

