80
CSD_code = KIRVAI | q = 1 | S = 0 | Stoichiometry = C40H33O4P2Pt(1+) | MND = 4
Pt        4.19224845742412    3.63647702379665    3.09099927855279
P         1.96744880669406    3.22913715530572    3.68293587968545
P         6.52869407218276    3.79609813214125    3.03918948356322
C         3.88382348427136    4.22515155286085    1.26112727550592
O         3.68589453566265    4.05785605780844    0.15493065264200
C         4.48192827373645    2.57113489716604    4.76867079194961
O         4.40661431296128    2.85569230628563    5.93250593944426
C         4.81777034930190    1.15035479497280    4.27947289180638
O         4.89188043042368    0.93384357560785    3.08348111349779
O         4.98858332502852    0.26394497114242    5.22614703458893
C         5.30219492996367   -1.06907035976219    4.82872558302887
C         0.64951805828657    3.58592756928692    2.48684247270904
C        -0.44589792386679    2.75241818978880    2.29502993245321
C        -1.44116295561643    3.12794332836409    1.40886329708798
C        -1.35154185576600    4.32839770229725    0.72395659236165
C        -0.26511226115176    5.16697190110708    0.92492113875154
C         0.73357659673935    4.79693768698082    1.80413317469662
C         1.56124566391533    4.31880427116215    5.06509828973092
C         2.50329564151840    5.25689201510266    5.47399481477669
C         2.20335217451740    6.12525495702955    6.50712140696469
C         0.01988993049255    5.13328607232841    6.70844529445770
C         0.96450377954761    6.05987040852589    7.12503602593727
C         0.31080652935388    4.26314327725639    5.67458265109413
C         1.72317941820086    1.51721408712864    4.21196117767093
C         1.78928649156111    0.53293881596705    3.22468410839140
C         1.70615020746939   -0.80022036001648    3.57654800699946
C         1.57218271202571   -1.15619159130807    4.91105816944039
C         1.52392397264670   -0.17999955426429    5.89287677622860
C         1.60376204168671    1.15881826047951    5.55034203896754
C         7.47047918092286    2.63734428467971    4.06828779546215
C         7.51528398333524    2.85828231277339    5.44472399090975
C         8.15979117811143    1.95352693015017    6.26611841882633
C         8.75675525872845    0.82582637845668    5.72327421984847
C         8.71499971297628    0.60643377166762    4.35568182834443
C         8.07098725338178    1.50630526867712    3.52433967060328
C         7.04003642741178    5.44130009019929    3.58762836547251
C         6.08444570287103    6.45346308694768    3.57696992570638
C         6.42891437434060    7.73381047416662    3.96879581583641
C         7.72798832074659    8.00517508140477    4.36946338614893
C         8.68108241560426    6.99808011447526    4.38309558883557
C         8.34271582588967    5.71413837449997    3.99563561748836
C         7.16505841053115    3.56572221684859    1.35872348189203
C         6.57418860223806    2.56291520880272    0.59049204275749
C         7.01832028852829    2.33380265003779   -0.69814690855804
C         8.04229747990130    3.10666958695048   -1.22457257810336
C         8.62381614476838    4.10729669057781   -0.46288072931541
C         8.18983181443274    4.34181446719258    0.83054183924918
H         4.63359282078857   -1.38847692578043    4.02780065717875
H         5.17436927946427   -1.68766977785421    5.71261952531920
H         6.33427966393451   -1.11324143917378    4.47657966332648
H        -0.52015630852899    1.81647747709670    2.83037492850446
H        -2.29025770709901    2.47965670306476    1.25490413708462
H        -2.12955349575397    4.61295519782262    0.03275042596781
H        -0.19896423734545    6.10507300477880    0.39545363583298
H         1.58712265057521    5.44481283454762    1.97596526131153
H         3.47541839699656    5.29041854190443    4.98133817385673
H         2.93339359957268    6.85054871081258    6.83256635408636
H        -0.94503467718675    5.09143914110078    7.19018229606057
H         0.73115243898458    6.73519958850206    7.93376994485104
H        -0.42152342217599    3.54213955539811    5.33666863143672
H         1.91202712236459    0.82458115746640    2.18872244662813
H         1.75104840446753   -1.56223485681136    2.81295303610905
H         1.51129785352535   -2.19847564806844    5.18501055123726
H         1.42943320574020   -0.46018702286617    6.93064017463977
H         1.58427069422717    1.92125882899366    6.31600759670214
H         7.04373030893465    3.73701830377759    5.86473196936559
H         8.19283406023732    2.12583406476065    7.33065877393341
H         9.25615420412953    0.11828572213154    6.36723574516480
H         9.18594726912985   -0.26852068607547    3.93257823513296
H         8.03222388857257    1.33263632850903    2.45848253036138
H         5.06929682931196    6.22246473976789    3.25455173056744
H         5.68864913669649    8.51939081631691    3.96354611169649
H         7.99866718011031    9.00380782229470    4.67571232658494
H         9.69031099624076    7.21394999080708    4.69895175365251
H         9.07904233734492    4.92208459726778    4.01638007006395
H         5.77697632722235    1.96357545385716    1.01676979528712
H         6.56467458001259    1.55656171561021   -1.29412729896081
H         8.38562135538034    2.93009361992244   -2.23224010710700
H         9.41871717713733    4.70885807631442   -0.87678182686370
H         8.63830649311910    5.12685023063884    1.42238968660262

