99
CSD_code = KIRXUG | q = 0 | S = 0 | Stoichiometry = C38H50NO7PPdS | MND = 4
C         5.71478514203830    7.56553734250708   13.78269181957774
H         4.88226327943602    7.81956510763826   13.12267805036318
H         6.37372895036606    6.90082222905760   13.22765529712553
H         6.26208539003707    8.48817140150856   14.00142502649554
C         4.19684959789553    3.44809564679201   15.40856039881210
C         4.08359496679468    2.20800221420973   14.78280757021349
H         4.89970655121880    1.83340988893562   14.18173243803023
C         2.93343008944722    1.45304775389808   14.93099939308020
H         2.85840561629449    0.48965760933039   14.44605585438278
C         1.87400777476500    1.92848619079988   15.68966368094329
H         0.97015806289258    1.34480440507403   15.78715052485102
C         1.99364787778631    3.14704538171077   16.33840343625790
H         1.21285404396361    3.53614595233471   16.97314301739026
C         3.15133238118809    3.88583397084266   16.20166437769358
C         6.91836036029897    4.10683349825322   16.27376123005224
C         8.10389387536323    4.81573112983113   16.04999202034667
C         9.18218759718780    4.67576414841805   16.91316625307163
H        10.10617309058232    5.21223882811932   16.76702267410523
C         9.05002248037844    3.83737795710843   18.00678725454269
H         9.88219195527570    3.71971259843310   18.68593812612896
C         7.87638077705464    3.15342866608847   18.25704233356812
H         7.82422609815457    2.51938958518646   19.12722277971181
C         6.78230964287005    3.29245116660025   17.40051647368841
C         9.27478409002179    6.10096677735250   14.39582986276213
H        10.07937879743059    5.39097045113216   14.63168694372229
C         9.12006119321101    6.15991405850047   12.87845873489437
H        10.08173730712236    6.37272788393652   12.41848447283820
H         8.41561028724163    6.93828289320519   12.60301414744600
H         8.74482081629160    5.21166154253491   12.50407135391349
C         9.61722021562043    7.47999332805922   14.95829166345779
H         9.74293974909040    7.44100895506683   16.03718889242191
H         8.81217243452045    8.17192140247197   14.72435197519841
H        10.53769853913682    7.84509995004845   14.50989370753081
C         5.29811141375273    1.98442359859721   18.76954929527783
H         5.78499990753719    2.49781804881762   19.60921425508809
C         3.78917383888042    2.04301533712385   18.98041301201258
H         3.53706056925547    1.59953183983551   19.94018351724844
H         3.28092233754320    1.49647096698227   18.19017435658164
H         3.44595329159765    3.07629241794546   18.96195237585044
C         5.78593568181069    0.53668896558428   18.67690586159832
H         6.85707780371222    0.49439881778450   18.49175578450133
H         5.27553463488637    0.03764538817222   17.85636241329528
H         5.56640751204121    0.01032453433479   19.60193593814074
C         6.09220931973404    3.91505429497184   13.47789243497643
C         5.17168656736355    4.31400273482754   12.50156763302115
C         5.34639076097653    3.94578632899074   11.17396796526402
H         4.64787827819619    4.23793975750833   10.40659725573917
C         6.45169882345687    3.18181016261287   10.84224283840605
H         6.60572729612055    2.89490282969052    9.81250281799459
C         7.35897158492775    2.75966325778632   11.79742730954904
H         8.19403218045177    2.15024221232616   11.48980802982600
C         7.18015250180744    3.11216558678941   13.13583823236743
C         2.95094592140843    5.26724117704606   12.31633933236729
H         3.17462502072661    5.57138374982907   11.28357226906402
C         2.24283459336808    6.39591338009557   13.05988004086941
H         1.16826614931333    6.34001066226118   12.91359969168671
H         2.59444037100172    7.36329591799423   12.71253564922213
H         2.46917163108036    6.30303888987718   14.12719306956440
C         2.11553969419079    3.98700546771716   12.30919398386872
H         1.83886200571240    3.72984811325095   13.32860945526706
H         2.68420647962687    3.16110745327244   11.88611866034141
H         1.21410411339687    4.13067906425254   11.71934943563276
C         8.95864665758066    1.70829261527796   13.98600117389486
H         8.62384511547240    0.97749001987299   13.23559778463254
C         9.10027553128203    1.00894901670171   15.33523159947127
H         9.85400623052596    0.22866157284438   15.27685314751778
H         8.15012139537756    0.56858330336439   15.62537284319126
H         9.38445830443309    1.73435019552232   16.09299301895791
C        10.28407710782226    2.33232106003694   13.54919359506935
H        11.02437768967480    1.55477491798450   13.38059255767192
H        10.64359552719881    2.99860240785623   14.32917626291974
H        10.16098470080355    2.90614070058253   12.63382589729404
C         3.72864863739189    9.29779259892053   16.47203751876063
C         3.38477992278818   10.11927684065693   17.54101618987819
H         2.47997930989920   10.70486378492351   17.49387783541605
C         4.20209998157385   10.16514020286051   18.65418499181644
H         3.94864502285905   10.78493744960184   19.50153247970527
C         5.35969402496673    9.40714941925373   18.65417568014028
H         6.03286359595831    9.42461758415051   19.49742655984990
C         5.64863174356096    8.60429360791433   17.55733273652267
C         2.86538634751196    9.22544374732717   15.25992646201246
H         2.25631951990773   10.11989877523268   15.15455278093755
H         2.21651985100407    8.35574577143250   15.36979506540943
H         3.48357523852147    9.07760501397975   14.37677676463819
C         6.89736225077399    7.77773665134770   17.52907760844422
H         6.67413957410598    6.78737629272875   17.94123682564592
H         7.68109585759335    8.23764906185879   18.12951555664415
H         7.22985104437045    7.64487037914303   16.49181247902158
N         4.83494186508737    8.55196994810060   16.49603414766143
O         4.75314504960213    5.59268364164475   17.38915419039857
O         2.61680765528872    5.12164757427761   18.40682257240762
O         2.69552869634865    6.44424980488630   16.36943775431822
O         8.05626465158748    5.61171147122811   14.95113380868786
O         5.59187776496484    2.67708007845126   17.55988777905166
O         7.96032049768339    2.70278974808926   14.16422281249518
O         4.16631626251130    5.04979360988715   13.02449966978351
P         5.60265083741434    4.56931954388354   15.11031212957409
Pd        5.07090498883862    6.70496961038700   15.49933170540760
S         3.31292223283168    5.39162110663663   17.16861331549035

