65
CSD_code = KIRXAM | q = 0 | S = 0 | Stoichiometry = C28H24F6NO3PPdS | MND = 4
C        10.51512680535929   12.33099120706964   10.64780867744238
H        10.39277184712381   12.97304793115670    9.77128030118081
H        11.48210649611791   11.82732963820655   10.56303739799801
H        10.57175448480412   12.98082386056743   11.52694637681511
C         9.08033135438997    8.75360736604725   13.35163916582583
C         9.51166205219314    8.61114428635648   14.67062450999772
H        10.51642253963980    8.88672750120774   14.95566546051373
C         8.65320278930266    8.08890947677485   15.62294869396037
H         9.00278781605681    7.97090082582239   16.63770312690776
C         7.35872887116658    7.72260739488634   15.28884752216456
H         6.70066974177799    7.31264886717228   16.03999570816708
C         6.91160714396846    7.89615121004134   13.98842295712007
H         5.90962321408278    7.63874142498984   13.68278467801392
C         7.77209416146900    8.40983568708004   13.04420592041768
C        11.46306365678914   10.23748429780042   13.01797459537201
C        12.76758236421450    9.83008607873365   12.74261523923066
H        12.92872447356643    9.05928847443174   12.00446109342404
C        13.86136875701384   10.37706917720464   13.38685944167144
H        14.85341999056271   10.02386789542087   13.14932476763573
C        13.68475771518929   11.37210307181590   14.33204041926704
H        14.53010894212351   11.80162515356147   14.84592684361500
C        12.40721247146790   11.82092648771129   14.60523791495904
H        12.24922828055655   12.60783213599513   15.32791382444366
C        11.30998519899947   11.27100576192280   13.94882237444513
C         9.99222877180916   11.87584899078382   14.34669934094776
C        10.93599441412849    8.33170262270357   10.95543437156801
C        11.14580589018672    8.82990221041567    9.66788609422868
H        10.82655350685312    9.84828859544435    9.45984786886305
C        11.69965939339824    8.05291277492297    8.67078775469633
H        11.84368709373181    8.46426090668678    7.68285203748014
C        12.05143182974429    6.73873578142017    8.93433548334088
H        12.46774351229474    6.11411422376480    8.15940344618938
C        11.85479925778980    6.22348579057156   10.19999045513906
H        12.12252961309458    5.20020053803094   10.41458671053652
C        11.30894615750571    7.01223459166779   11.20975707654047
C        11.14741808228969    6.39272523788304   12.56624932141647
C         6.88764323326510   13.14245776066304   10.31674459148478
C         5.83138292342197   13.71164580035058    9.61492480900029
H         5.17928634380007   14.41828673804694   10.10340102989752
C         5.62175797366137   13.34640079478738    8.29694846140627
H         4.80563162717121   13.77177605087969    7.73243737667658
C         6.46538409324783   12.41335138577035    7.71776937206402
H         6.31582584437032   12.09058350179628    6.69954093634577
C         7.50566764478972   11.88208552542747    8.46948408292031
C         7.13925970593842   13.42990479071173   11.75973239821247
H         8.19435925700273   13.67354043241141   11.91843454309081
H         6.90720956705019   12.51909238265554   12.32548528480741
H         6.51592339453174   14.24452092990347   12.11941489690498
C         8.44218577331879   10.85034057236593    7.91957927317566
H         8.39247068869279    9.94398628922744    8.54179108521119
H         9.46754797202740   11.23489726654102    7.94239879117513
H         8.17987594513323   10.59168779561797    6.89650576231483
F         9.65726182284340   11.56689090083613   15.61511587715602
F        10.03698285920152   13.22220292271879   14.30268254966027
F         8.92182507562887   11.54260047552470   13.59603946436496
F         9.87761360823724    6.10056919688799   12.88509141547813
F        11.62191162428525    7.18746167954086   13.54702499187021
F        11.82580056729192    5.23870314830080   12.69510894994533
N         7.70973049007965   12.27313073810139    9.72918826124414
O         6.90392177523899   10.17995232902284   11.37841140052182
O         6.14086313637882    7.90360874593678   11.03665769799959
O         8.46986799138071    8.50100888256546   10.58434531284998
P        10.05291805522203    9.54460540813671   12.02747624262703
Pd        8.90519260681300   11.09934028257650   10.88469780101244
S         7.24445970948219    8.75509979636517   11.37615036905763

