49
CSD_code = KIRYAL | q = 0 | S = 0 | Stoichiometry = C14H30NPPdS2 | MND = 4
Pd        2.16824176774840    1.74493468355801    3.23156424771401
S         3.09808587527847    0.06191710623222    1.89268654763837
S         2.23788092414549    2.72024251424712    0.96971888933969
P         1.46003054979503    3.54947621653655    4.36560681028729
N         2.49729350718436    0.63539531679429   -0.60372118726892
C         1.95738317240930    0.46002841450623    4.81128199060711
C         0.60671123294984   -0.16163759316974    4.47713138473923
C         0.21290048167291   -1.24916716654516    5.48101895022891
C         2.58593081079919    1.09407717862251    0.64440935339484
C         2.74892501151410   -0.74100808653702   -0.97738209410096
C         2.16906102381029   -0.84652183975863   -2.38444422009561
C         2.37262206948100    0.56264261327732   -2.94016720424602
C         2.08964330616383    1.44882594603873   -1.73120789813011
C         0.30405600725930    4.47473535433662    3.26969669376582
C        -0.77319349926399    3.49960477792549    2.80312606495231
C         2.90344343205499    4.67399226933502    4.62744680976371
C         4.02011370726898    4.27283922018724    3.66379833956281
C         0.62377303123820    3.53940075160724    6.01342708839561
C         0.20122306992446    4.90338019736013    6.54335869891230
H         1.93995134893127    0.92269220239052    5.80397745852211
H         2.75594922964145   -0.29330040965537    4.78067190228227
H         0.64446525153051   -0.61383071426504    3.47279156842561
H        -0.17268574980036    0.61711032207970    4.48119043717722
H        -0.75292890098605   -1.68068653393383    5.22504148652223
H         0.95586664336262   -2.04374595968941    5.48559871512665
H         0.15090460516258   -0.83269082278666    6.48475056639468
H         0.89262117005731    4.80929947888449    2.40989925562518
H        -0.12313537976070    5.34877766512819    3.76494180083416
H        -1.36827416312246    3.92520371911966    1.99795001973634
H        -0.29093836329871    2.58105724836712    2.43236159043279
H        -1.43854577381474    3.23047275342099    3.62217794351963
H         3.24144001066882    4.54558138145758    5.66019121698839
H         2.61231529354346    5.71708992737373    4.47632865812910
H         4.94033049503162    4.81132708719878    3.88423952847794
H         4.21598429371433    3.18704394848741    3.75211614138452
H         3.72883982282317    4.48812247277271    2.63441792708994
H         1.33277914850157    3.07441768394589    6.70417787290077
H        -0.24011959128331    2.87358790127218    5.94004921643868
H        -0.17553715545641    4.80247318464001    7.55966972592307
H         1.04149666430229    5.59320662201390    6.55986967401044
H        -0.59015994136645    5.33526777221932    5.93656284703332
H         2.27893694285701   -1.41905173876018   -0.25980628604196
H         3.82831549068495   -0.93595202306431   -0.96855614111376
H         1.10434743944606   -1.07792729016014   -2.33333127449475
H         2.66512307602896   -1.61125271795123   -2.97772088049036
H         1.71482467577247    0.78660239377048   -3.77696122875544
H         3.40651839889722    0.69070848510515   -3.26265606232318
H         2.64833482222415    2.38830101631094   -1.74030682017321
H         1.02305471430904    1.69193706974899   -1.64548612502743

