87
CSD_code = KISGID | q = 0 | S = 0 | Stoichiometry = C28H41F12N3O2W | MND = 5
W         3.39072387509242    2.73247737640546    3.81809486531689
O         3.15028549618402    4.76441904134058    3.21421387667220
O         3.72495676411000    0.77229102039546    4.71701430664659
N         2.39038985632976    2.97562251655802    5.34651891370012
N         0.86609869946690    2.64208880032128    7.13882995655014
N         2.75163508856589    3.71377115769556    7.58264048656295
C         5.08532512153293    2.86716030686791    2.72558792137469
C         4.29465003985037    2.26367240660533    1.72585529603635
C         2.93390935110012    1.94008669157965    2.04544482712908
C         6.47038809711859    3.37385950310585    2.49197204456965
H         6.51057943372647    3.93262807311127    1.54897407941998
H         7.18100768065322    2.54120587725526    2.40841811088813
C         6.89831618860992    4.29731593083333    3.63307693862264
H         6.15371278519179    5.08273757706557    3.76060516991138
H         7.86128468013874    4.75648104992058    3.41759195862527
H         6.97978503355304    3.73253080642893    4.55867192012220
C         4.84823830546856    1.98947779946258    0.33837749327357
H         5.93378200417541    1.89370964800051    0.39251678854452
H         4.45186608058283    1.04308836338390   -0.03895855706817
C         4.48305180451674    3.11280237209660   -0.63341024154002
H         3.40624634343046    3.16565402738721   -0.77779501995014
H         4.94896269669756    2.93880128408743   -1.60127585796768
H         4.81724455864535    4.07470293771943   -0.25326192750263
C         2.01451491141344    1.18924792614023    1.13463681809412
H         2.52761772308857    0.30777533655743    0.72560942187721
H         1.71517603513147    1.80272811012568    0.27510413318334
C         0.76251334705730    0.72768067542481    1.88285490285828
H         1.05105239118775    0.20908126151971    2.79572493858790
H         0.16971446161995    0.05634233383828    1.26462690447811
H         0.14537514773967    1.58036827810334    2.15518885435138
C         2.03855982700659    3.09610483802493    6.57199391362093
C         0.86882639782009    2.97980890809141    8.46889881267390
H         0.06496787397409    2.74508796519074    9.13257628284111
C         2.01605087894126    3.63535788924726    8.73923872940585
H         2.34217592825141    4.04849977310008    9.66913959114537
C        -0.11475164274561    1.82059734993217    6.43069900349276
C         0.57030218109440    0.52014589864687    5.99675882946214
H         1.44882876941274    0.74623410146611    5.38708077406034
H        -0.12003255403965   -0.08693872657057    5.41743417347614
H         0.89263180146952   -0.04942433652769    6.86516248823998
C        -0.61524898346115    2.58949346570637    5.20485607506098
H        -1.05028038940251    3.53998484816684    5.50350479148716
H        -1.36618381410531    2.00397559100279    4.68164077953248
H         0.22420913291094    2.78187041279809    4.53683525521449
C        -1.29591923450769    1.50100985509848    7.34753618802481
H        -0.97998983128827    0.91710151678751    8.20852721542944
H        -2.02217533465270    0.91337155185032    6.79243434475304
H        -1.78503621721356    2.41107060775435    7.68707946285605
C         4.10383408599971    4.24845003860959    7.42024359420853
C         5.02286382742932    3.11666412750849    6.94723328417777
H         4.99733707483455    2.28234265786158    7.64490121054081
H         6.04560422026367    3.47525993540932    6.87353752933853
H         4.70395195398362    2.75660283204466    5.95303899520560
C         4.07989065493349    5.37745776126578    6.38564881080977
H         3.80953227315226    4.98584575485898    5.39736075646965
H         5.06225319468719    5.83648990014706    6.31566840193595
H         3.36110218036514    6.14235647994668    6.67094381916035
C         4.61583896347451    4.79442541522748    8.75509016448030
H         3.98660206209974    5.60546734990360    9.11368166923782
H         5.61972895012755    5.18490264988552    8.61358559698956
H         4.66201448561840    4.01116099064170    9.50784811616652
C         2.17689653007958    5.53441072797747    2.65560331572292
C         1.17949692577343    4.77222373455937    1.76996873803349
H         1.73365928668072    4.29392868303690    0.96486774506765
H         0.43181587672752    5.44501782085578    1.35493446549072
H         0.70164025535546    4.00572182299423    2.38103196800435
C         1.38978730917783    6.23584593537516    3.79498446104530
C         2.88450766782191    6.62121527989951    1.80372568558223
C         4.42726633982426   -0.37885561023035    4.59303696540227
C         3.80357187891793   -1.40745436702832    3.63285892395394
H         2.84507170937286   -1.72534676851902    4.03543196139013
H         4.45659474446696   -2.26849794515118    3.51127049406775
H         3.64274362140647   -0.92180947598298    2.67290141719286
C         5.87335540807315   -0.05578388766730    4.12866213733061
C         4.52373635948864   -1.01261620748701    6.01010422038313
F         0.28612041379732    6.87990994986806    3.38365915412301
F         2.11310447745552    7.12209644600375    4.48190810459129
F         0.97682311005219    5.31336055982423    4.67914900360362
F         2.04056861343164    7.55060233177036    1.32493769070274
F         3.83378242370849    7.26750101259504    2.47840648607918
F         3.47877288412326    6.06891315416241    0.73927927117088
F         6.29669946515753    1.09176453941366    4.67941082406286
F         6.78296538702846   -0.99236213509647    4.42536107121282
F         5.93403043953243    0.11165423816815    2.79984572692664
F         5.09536886511776   -2.22639510049117    6.02656153204817
F         3.30547601424614   -1.16917595795650    6.53797957271402
F         5.21465127477028   -0.24805467330246    6.86269108123870

