35
CSD_code = KISGOL | q = 0 | S = 0 | Stoichiometry = C18H9F4FeNO2 | MND = 8
Fe        2.21955445165096    2.54995207595772    2.34029965433455
C         2.22339556779239    2.61025722911333    4.30609674421633
C         2.23794003497817    3.80430002322886    5.01416607403012
F         2.36002836613325    4.95674909981461    4.31150503852781
C         2.11121075758230    3.87290593992626    6.39356538309463
F         2.15193134795822    5.07561478230692    6.99526435960119
C         1.96030535228801    2.71920838801427    7.16022070576562
C         1.92892156139464    1.50774327166546    6.46956227396632
F         1.72854301087865    0.36295912019719    7.13346968532317
C         2.05173206019038    1.47547242070710    5.08743712821803
F         1.97751090653074    0.28019182247440    4.45377902182995
C         1.85800896379456    2.76227856432838    8.63237536066566
N         2.57609101866943    1.86125263806506    9.29261081741123
C         2.52432583681881    1.85225296732796   10.60899343268402
H         3.13146126015427    1.09685677027111   11.08992362023325
C         1.75617798966497    2.74021225924236   11.34866442924677
H         1.74775752827580    2.69708593293006   12.42646373690175
C         1.00273428944223    3.67883906870894   10.66190284167959
H         0.38600486156724    4.38814908879202   11.19455743754758
C         1.04804274261892    3.69500357361998    9.27842471638811
H         0.46565978330986    4.40558744301479    8.71405241833292
C         1.20697839636022    2.64106233344496    0.37629075499795
H         1.63527166413063    2.64772457521524   -0.61278105561824
C         0.81120138615488    3.78856542251084    1.11375349959288
H         0.94375802723813    4.81246610958961    0.80740904575528
C         0.13568007734118    3.35412196053110    2.26771849610339
H        -0.36204095705041    3.98729886238824    2.98374563719113
C         0.07991013335276    1.92959848689163    2.23609853197514
H        -0.47123991350963    1.30615522218342    2.92038028365305
C         0.71540053743906    1.49759721085809    1.05755934935961
H         0.76442854474539    0.48174388956251    0.70309882966314
C         3.58908821099270    3.62924173193455    2.26264060845719
O         4.51796124295923    4.28799368095295    2.19444518951013
C         3.41259208274571    1.27586939248319    2.34387745203899
O         4.23387287540434    0.48448864174836    2.32792849732413

