36
CSD_code = KISJEB | q = 0 | S = 0 | Stoichiometry = C14H15F3MoO3 | MND = 9
Mo        2.43711056848492    2.19243046794848    2.52679456160092
C         1.94165112111158    0.33607965184514    2.19644430076354
O         1.74140675531182   -0.76676757661308    1.98187691529964
C         3.25349096640348    1.15249838530950    3.94962208562139
O         3.70672194802827    0.52809042722609    4.79552744838132
C         1.51269253468997    2.69387602509721    4.16860701876537
O         1.04978027367054    3.02877315781646    5.15652676144893
C         0.38025510099399    2.34139246273241    1.90331941697151
F         0.18979838179347    1.98256777255427    0.60641833734730
F        -0.11043892216004    3.60664362119681    1.97796331361497
F        -0.52060940742031    1.59589661714614    2.58920482726677
C         4.26618284327934    3.53855153171422    2.42357106428540
C         4.44798827442453    2.45064959671704    1.50005049073152
C         3.45280672301174    2.56425589072835    0.48829962092391
C         2.67342090224226    3.72809424129562    0.76712069013141
C         3.16072318492925    4.31500681584648    1.97370446067336
C         5.23212769543466    3.93724260005833    3.49965845898373
C         5.63377428516620    1.53286631696851    1.45933124506480
C         3.40317797449918    1.78925222917768   -0.79575345180429
C         1.76797958466940    4.40942827281837   -0.21317663746262
C         2.75630485012385    5.66316722558259    2.49408748913803
H         4.72696910999240    4.46311137656607    4.30812036801701
H         5.99148197809095    4.60304691252803    3.08324486983924
H         5.73716457758429    3.07001018595165    3.92163277158330
H         5.37623843106260    0.57543181072332    1.00952024881488
H         6.02517014532033    1.34492179584524    2.45769311500422
H         6.42875520179610    1.98598090739887    0.86265271214195
H         3.85305853581602    0.80507964682174   -0.68019830756639
H         3.95184915452025    2.32718586257392   -1.57239670750830
H         2.37655049885179    1.65732180587813   -1.13342766260349
H         1.25085774669686    3.69395143107274   -0.84840848902623
H         2.37357029323687    5.05644481488816   -0.85312594219719
H         1.02548393379813    5.02741411108845    0.28652557838648
H         1.68365977179595    5.81701514095220    2.38908813406718
H         3.27038972181267    6.44517782306318    1.93055253422033
H         3.01535526102245    5.77451064143554    3.54512835918057

