49
CSD_code = KISMOO | q = 0 | S = 0 | Stoichiometry = C18H24Cl2N2O2Zn | MND = 4
Zn        2.83537015117108   -1.83389927168949    8.13787705169737
Cl        3.19996151929677   -1.25529122448362    6.04148114675310
Cl        3.07340885283281   -3.72373552201138    9.22052339115024
O        -0.47470394617467    0.64436455380897    8.74421047004989
O         4.39464505039270    1.74969872022230    9.61071219664564
N         1.05238546916395   -0.96439146758304    8.74204657910570
N         3.79999780170049   -0.35136614775283    9.22034149403934
C        -0.02136267398103   -1.51804194244836    9.54920143801106
C        -1.10565545954221   -0.41971980983610    9.45907721729038
C         0.73612859769573    0.21632320554511    8.38087441951813
C         1.53734386955293    1.12103476673916    7.55539031336781
C         0.88693339548186    1.72670535526401    6.48303253989280
C         1.56177164504811    2.58567910297253    5.63705511046015
C         2.89298076041238    2.88162647580883    5.87526106813402
C         3.53971158377873    2.31878901412646    6.95872330016559
C         2.88267976362935    1.42210570909904    7.79788550265455
C         3.67409762587429    0.87620179289632    8.90288684242518
C         5.13427992972171    1.00530891388418   10.58025193938177
C         4.78048604825826   -0.47047885255147   10.28497232435941
C         5.95589324115316   -1.36325018843357    9.84523849032515
C         6.64657014039402   -0.83895138325716    8.58890222670019
C         6.94386038920802   -1.53873306938926   10.99521482995256
C         0.48524866298478   -1.84810992513189   10.96572600669568
C         0.98949476216787   -0.61193225560095   11.70690875205733
C        -0.60270704264737   -2.56131154187504   11.76274215096031
H        -0.35274914053210   -2.45259991935439    9.08603036036089
H        -1.42115169548076   -0.03867381015569   10.43156395592953
H        -1.98583194632323   -0.73899725048314    8.89488245102906
H        -0.15256081234891    1.49571456912737    6.30838189639632
H         1.04820128568945    3.02286502734011    4.79477248717956
H         3.42805608483793    3.55114519100117    5.21973085006420
H         4.57511143806884    2.55064151400671    7.15444974932077
H         6.19413994466733    1.23018213966391   10.44812055508603
H         4.81924889667717    1.32868143441580   11.57564108271536
H         4.29640109806917   -0.95182146070766   11.14145462977658
H         5.51856515890519   -2.33928237219221    9.61174112301507
H         5.93851598513928   -0.76087308146967    7.76556199677332
H         7.43068775520312   -1.52995494910688    8.29123330707101
H         7.10257712811101    0.13593633792643    8.75439747100203
H         7.72590382360346   -2.23383319966065   10.70280456221718
H         6.44295522377651   -1.93966813611347   11.87275358823149
H         7.41157787512107   -0.59375124752176   11.26460644083435
H         1.32655258261966   -2.53463902203549   10.82777210476620
H         1.46418871149581   -0.91454658037458   12.63711922684024
H         0.17787004754123    0.07146442272488   11.95222597264987
H         1.72350637599949   -0.07837864232739   11.10562187049676
H        -0.22055795015390   -2.83768494831296   12.74160794421677
H        -0.91632851582712   -3.46794806687159   11.25246934201148
H        -1.47359949243532   -1.92350295783970   11.90272023022393

