40
CSD_code = KISRUZ | q = 0 | S = 0 | Stoichiometry = C18H17CrNO3 | MND = 9
Cr       -0.96876728544130    5.67472354463551   10.11559571406271
C         1.19384553977869    5.23652589531486    9.56018667648990
C         2.23073275519676    4.38105101606086   10.23646798360932
C         0.45122090272871    4.71936241183789    8.45070096986463
C        -0.49193407021786    5.55761899805098    7.83766712916594
C        -0.63017951197597    6.90760210460947    8.22295139605650
C         0.16658380926274    7.43366438213172    9.23344487735367
C         1.06976916899314    6.58695384330120    9.90473655510315
N         0.73008741248415    3.45949221525601    7.97830889931523
C        -0.13540531023123    2.76225146979121    7.03973258918812
C         0.44985295508104    1.37290084837275    6.79038687660832
C        -1.56641421782100    2.65146338567935    7.52692154648920
C        -1.83494506600247    2.27499015987437    8.83647311845887
C        -3.13950669866362    2.18347874376158    9.28736071631690
C        -4.19014425758081    2.46302134511554    8.43164890401469
C        -3.93171226093874    2.82768392468312    7.12166054288058
C        -2.62672535480107    2.92353263450796    6.67304717390140
C        -1.40327268366537    6.43245939266217   11.70963002068750
O        -1.71820865422717    6.83594608736861   12.74862996892002
C        -1.16441040625015    4.22539468641797   11.18453387854579
O        -1.31418535751319    3.35121812196621   11.93525720368197
C        -2.77242645357366    5.46900292655396    9.97316272084968
O        -3.91757482621097    5.30257649475684    9.96677241358522
H         1.78408179874364    3.48076871187044   10.66080868954512
H         2.69998990765737    4.92905906949408   11.05037444079383
H         3.00846769481027    4.08268702487585    9.53038361446226
H        -1.05663645868781    5.20287623479328    6.98724388002180
H        -1.30138065186417    7.54751756195740    7.66280600669874
H         0.13460511557225    8.48924128063564    9.47248017070517
H         1.73096831088137    7.00398475050382   10.65605199059359
H         1.16769786434043    2.84563759057492    8.64940956165793
H        -0.11786332461923    3.32068178121784    6.09382847088417
H         1.48134276966809    1.45015015970183    6.45345334103329
H         0.41628532360042    0.77950978424562    7.70180287244113
H        -0.13049925079260    0.85927900587243    6.02881772845338
H        -1.02484041469237    2.04120179187222    9.51139744278576
H        -3.33046573341840    1.90191217359930   10.31099470402451
H        -5.20751246057962    2.40053905761503    8.78507103555393
H        -4.74743302558612    3.04385207967398    6.44748720727706
H        -2.42918759344233    3.21098730879395    5.64851096791884

