73
CSD_code = KISTUB | q = 0 | S = 0 | Stoichiometry = C38H32FeP2 | MND = 8
Fe        2.14357278935882    7.27957831833141   16.37512998978302
P         0.27539658266376    8.27988922414096   16.08651427393980
P         1.85151071064163    8.29703781751515   18.24105021011855
C         1.00474851830559    6.13531112344444   17.35712212242453
C         0.33946448625216    5.34243853298933   17.99370302014410
C        -0.44447983601585    4.42802384207150   18.73325566908913
C        -1.78373354500030    4.21186780291143   18.39878102303589
C        -2.55057240778437    3.33224025956320   19.13672842644838
C        -2.00082390246560    2.65950713823324   20.21685945798289
C        -0.67387861741522    2.87233511382091   20.55701834558658
C         0.10211377649276    3.74714451078879   19.82359162702278
C         4.04207809951836    6.29152822239009   16.24779998228956
C         4.17121554083658    7.65518253705445   15.86187968006460
C         3.35258104198554    7.87192960788471   14.73841313921104
C         2.71650653954495    6.63676557503090   14.41877227943595
C         3.16267897624511    5.66539372741623   15.33717725249099
C         0.07550627638018    8.78105576045483   17.87675462700430
C        -1.27938078482562    7.44422654160234   15.64579113311478
C        -1.20517751820142    6.15999036631491   15.12355381808656
C        -2.36443090134202    5.48951466684434   14.77712729569277
C        -3.59500555462894    6.10175869240710   14.95508003245049
C        -3.66925071136967    7.38539849797938   15.47417493103063
C        -2.51292272262525    8.06151236370657   15.81682329930765
C         0.09119132815592    9.80982517694906   15.10868184140084
C        -0.09452162456770    9.61060601693691   13.74100318598417
C        -0.13963836944540   10.68338620297484   12.87355111263587
C         0.01592730557994   11.97189930011593   13.36192527217793
C         0.22228390399951   12.17638163838561   14.71557217862020
C         0.26785777425455   11.10223350349325   15.58727810122701
C         1.83325197711201    7.53226506631403   19.88782286187267
C         0.92042096249838    7.85493349255134   20.88418447278892
C         0.96549736426667    7.18920513806791   22.09642569708146
C         1.91894284751638    6.20923844386536   22.31838077069911
C         2.83125686136217    5.88668351572584   21.32570867011185
C         2.78424058354252    6.54370722864200   20.11122638476204
C         2.59663663441543    9.94052394146057   18.55535074078472
C         2.98430657800377   10.64355970203508   17.41844761380165
C         3.54251068702241   11.90208553346491   17.52946046067946
C         3.73664736510861   12.45920985011957   18.78402644189515
C         3.37455007951799   11.75367413309638   19.91993133763766
C         2.80672801684321   10.49564554656516   19.81158024925765
H        -2.20925537905024    4.74240983843775   17.55762857312034
H        -3.58615978552727    3.16958161874945   18.87077428092081
H        -2.60473310209454    1.97233802334707   20.79203890459605
H        -0.24325275770165    2.34895957385634   21.39968964295799
H         1.13670714675259    3.91937458047234   20.08478298322584
H         4.62012350769856    5.79482766394845   17.00931268527561
H         4.84408826069720    8.37076954010743   16.30724759594214
H         3.29669895195799    8.77394020381315   14.14999480984739
H         2.10241715368152    6.45596080507184   13.55104863319038
H         2.90001633295679    4.62070655484176   15.33220943928402
H        -0.19952372651481    9.81768168387032   18.08329617713122
H        -0.61589238871839    8.09151400584090   18.37134242465607
H        -0.23169548244841    5.70018533002539   15.02085972112014
H        -2.31207068463040    4.48809007926094   14.37518602830807
H        -4.50155580257252    5.57703069356386   14.69033527577194
H        -4.63182300801210    7.85690839400812   15.61150165084965
H        -2.55722829766685    9.06617617110718   16.21753741041519
H        -0.20764598462712    8.59785836361164   13.37365785330916
H        -0.29016650573175   10.51991758419835   11.81622333678759
H        -0.01592549300971   12.81398014925907   12.68636293219372
H         0.35361958972089   13.17898161319137   15.09690942354188
H         0.44608542456608   11.28030300709946   16.63789930784525
H         0.17590515170981    8.62020224664429   20.70897649227621
H         0.25195388936730    7.43229731640262   22.87071919785284
H         1.94584590145349    5.69053580521917   23.26548643327389
H         3.56985628616419    5.11741813765616   21.50039789047407
H         3.46121024249107    6.29278080720298   19.30569883765927
H         2.83985339571682   10.18040771238931   16.44993109331104
H         3.83366766143930   12.44613611914012   16.64242357073462
H         4.17795032336678   13.44078998287653   18.87706785933000
H         3.53563079772755   12.18606522404190   20.89704703391332
H         2.53039126910514    9.94487749708408   20.69965347171390

