58
CSD_code = KISTIS | q = 0 | S = 0 | Stoichiometry = C24H24CuN2O5PS | MND = 4
Cu        5.98236249389974   11.92518688814972   12.95828879398089
P         4.98986231141168   11.17406849033823   11.03455255193701
N         6.87327983616934   11.59380397613123   14.80653502197451
C         6.50717106250456   12.17142761016926   15.73244489800575
C         6.01370275844823   12.90380354809755   16.85774785094689
H         5.92911419283346   12.25506498319194   17.72901753374448
H         5.03093044253764   13.29175635219186   16.58769383856626
H         6.68544757355785   13.73145771574566   17.08127713364834
N         7.10587749413367   13.66125619572117   12.66593859136705
C         6.63806322778442   14.56172885534652   12.12498634474302
C         6.04466946010329   15.66893884934708   11.44596674205074
H         6.62002310499904   15.92592784241374   10.55755393481341
H         5.98090517003700   16.52933324950391   12.11044935958746
H         5.04007954170190   15.34495490931298   11.16116396015050
C         4.87868305322454   11.97087534788147    9.40906080111675
C         3.74842793647671   12.25240657303006    8.66788197470624
H         2.77909744282934   11.93590985632940    9.02422914095764
C         3.87022919813724   12.95102036682225    7.47450435764814
H         2.99119190513753   13.17103960834470    6.88731850805714
C         5.11287409131112   13.37390490984169    7.04043804379162
H         5.20214102619608   13.92238083990346    6.11392384751358
C         6.25756248467334   13.10886313599829    7.78190207125235
H         7.21775241677391   13.45315311964705    7.42766759122210
C         6.13569018026546   12.40556303736787    8.96800692193313
O         7.13617799664733   12.04635759456296    9.81589401110793
C         8.44473387352559   12.48980282785657    9.55966611963081
H         8.83866169702122   12.05243066489188    8.63545272659228
H         9.04091501145685   12.15465289665890   10.40605266573906
H         8.49345158214738   13.58137743469375    9.49557251589177
C         5.57965600605968    9.51193998027080   10.53940723502900
C         5.98312122095105    9.06165011886658    9.29566599695676
H         5.87238216369176    9.70315744031191    8.43307189167584
C         6.51607920554847    7.78844357730364    9.15634156918425
H         6.82002428541086    7.43457133929535    8.18228942760171
C         6.66145033413198    6.97330116674124   10.26364474822682
H         7.08083526352464    5.98396542781320   10.15390378343220
C         6.27400999686531    7.40910615720460   11.52371137914526
H         6.39960394252739    6.75957511759574   12.37638230111444
C         5.73087750710268    8.67557578464897   11.65649468341473
O         5.27736175133765    9.24846988068407   12.80578523427838
C         5.46369704838809    8.57746162007021   14.02853017203456
H         4.89641528105768    7.64060981100047   14.05528385434735
H         5.09045917024089    9.25629290274503   14.79315045566078
H         6.52271962002291    8.37547538830930   14.21256763781004
C         3.24989707490430   10.73296464201814   11.38188033795228
C         2.61436737494055    9.61359183361260   10.84924896519710
H         3.14064440022335    8.97628025760468   10.15216130038228
C         1.30855419842022    9.32234023480317   11.20842829774847
H         0.81955844434813    8.45656978385876   10.78460486872588
C         0.62356948371076   10.13140212917591   12.10253679277514
H        -0.39406643004463    9.89526676462947   12.37688995800139
C         1.24847202440083   11.24909687286342   12.63507663191801
H         0.74694663912432   11.91546028410312   13.31987623120253
C         2.54653641617220   11.53099453273029   12.26960038154616
S         3.41434438818017   12.98755941796728   12.83613613522070
O         4.14177670100593   13.40922756363990   11.62954347263776
O         2.45266837362322   13.95267647268110   13.30531207474122
O         4.32165954816777   12.54302581797737   13.91048632934502

