27
CSD_code = KISXOZ | q = 0 | S = 0 | Stoichiometry = C7H15O4Re | MND = 5
Re        1.59188417873040    2.01990799100436    2.41325111768490
O         2.73959761578751    1.14310314756339    3.63373625284674
O         1.13697984402554    0.15715156041368    2.19512212405151
O         2.47722441783768    2.73448028840496    1.19277850344207
O         0.71896904373146    3.11300681815825    3.32844845611163
C        -0.15885694617842    2.10881357733476    1.05693901932444
C         2.59745223352814   -0.18774581201157    3.99699357824893
C         1.99179286471031   -0.83510379909616    2.69712643737737
C         3.95240182795855   -0.76878740375200    4.41544508896867
C         1.61088335614790   -0.26704175454433    5.17556968398670
C         1.19231958588318   -2.11638454012308    2.94632382459950
C         3.08383466497351   -1.10151996425230    1.64822625448532
H        -1.02063075941119    1.70009026252965    1.57525271353761
H        -0.34896512150640    3.13985876081697    0.77313979103509
H         0.05593590510749    1.50836530695587    0.17871745954775
H         4.24748199681465   -0.32847693872286    5.36490034557426
H         3.87754401325847   -1.84629623564322    4.53381790077976
H         4.71582050268602   -0.53379393031496    3.68035242896430
H         1.97123133329607    0.37952038693862    5.97295434683357
H         0.63099013488632    0.09276053810606    4.86309170357222
H         1.53237201713452   -1.28329459618925    5.55022244819982
H         0.88728769295818   -2.53403556014856    1.99011984476524
H         1.80320905492759   -2.84613242213877    3.47070762503060
H         0.29831155550638   -1.90612561743510    3.52467230934322
H         2.60104738419257   -1.34088748737405    0.70302932608866
H         3.68750900098394   -0.20580366363280    1.50390388814858
H         3.71687260202958   -1.93322891284750    1.94275752745158

