117
CSD_code = KISYER | q = 0 | S = 0 | Stoichiometry = C66H14F30N6Pt | MND = 4
Pt       -3.21443304650049   -4.76059932017886   -4.54144289767462
F        -0.27893598485192   -1.29365583154198   -2.27982802620697
F         1.06944467843344    0.08925625935327   -0.38149012238357
F         0.67583739144494   -0.48012302499576    2.25834663722147
F        -1.10423615237787   -2.41792150314460    2.97477788962798
F        -2.47737055710860   -3.76758499725256    1.07897048990923
F        -5.86520745649001   -4.55830462609478   -2.54481151115261
F        -6.20540199084405   -7.21069395208846   -3.01033000375139
F        -6.67867991240329   -8.10316603867803   -5.53849261382968
F        -6.79814519768925   -6.33703624538026   -7.60421896442479
F        -6.41604500588228   -3.68905259881625   -7.16047460830638
F        -7.91795209361850    2.52915629862013   -5.32357543875363
F        -9.54835125683727    4.62334067359460   -5.78329160945347
F        -9.74462328761313    5.69088711707174   -8.29133087208808
F        -8.31545348899091    4.58706873729395  -10.33920300885498
F        -6.75028200768041    2.44779444469450   -9.90955336956724
F        -0.31506740853988   -2.75958925671407   -8.86994454572596
F         1.39037664458194   -2.92378698457566  -10.94183908097658
F         0.80741425040919   -1.69257007403724  -13.31091201021930
F        -1.55355013677428   -0.34561106517145  -13.57976934148911
F        -3.29943497661470   -0.24124239916531  -11.54520143502293
F        -1.61078648281260   -8.08238134337365   -8.70243326563537
F        -1.84376536136860   -9.19098672216555  -11.15008444728941
F        -3.72643141851788   -8.27451332335273  -12.89833661610663
F        -5.37221107674106   -6.22428551885247  -12.16000625221603
F        -5.16382807284936   -5.13769634812523   -9.69963726634294
F        -1.06662971848266   -9.90506888732235   -4.37835798598214
F        -0.90753966939794  -12.37756342472789   -3.29460726317204
F        -2.31527706919407  -12.97430444646390   -1.03716086665955
F        -3.88813868184080  -11.07280386021784    0.12292138628996
F        -4.06786007498668   -8.60695805618593   -0.97986376081292
N        -2.59656277895979   -5.48136702384360   -2.74887379844414
N        -3.66851263886902   -3.11447174316612   -3.56171791699968
N        -6.00228591105273   -0.48764445829369   -5.70616324035177
H        -5.03835134091057   -0.24731265830776   -5.54225788940869
N        -4.59603058415307   -0.17890308061280   -7.96945323660478
H        -5.05723323069138   -1.03448250147620   -7.70216144310729
N        -2.95609366756504   -3.77639879963620   -8.61581640944666
H        -2.82974505790865   -4.02899598388425   -9.58182307701222
N        -3.06951995098835   -6.56616910057287   -5.37717220368417
C        -2.32038505644202   -6.77274113942659   -2.47952245637001
C        -1.51746087645959   -6.85234991388199   -1.28768969392414
H        -1.14603892676889   -7.75649858962665   -0.84641030446984
C        -1.28618447576140   -5.57892862225790   -0.88757036462320
H        -0.69154323277696   -5.25935580429564   -0.05524587523741
C        -1.99418681193182   -4.71725381290478   -1.79724935047063
C        -2.10745257033735   -3.32276701154362   -1.71389769599619
C        -2.96915330069776   -2.58089579894368   -2.53407427600582
C        -3.47009045799498   -1.25673078354647   -2.27113848453422
H        -3.10662401200419   -0.59582494441063   -1.50882911925985
C        -4.51293988655796   -1.04792731560584   -3.11355245648082
H        -5.17183940218036   -0.20178332228352   -3.13659326057592
C        -4.67684142759975   -2.25685082028194   -3.87916216490316
C        -5.79873582476181   -2.62661071077094   -4.63149027418779
C        -6.58958079098534   -1.63586521896100   -5.25869692952409
C        -7.93410123756868   -1.57812787817263   -5.66091957921394
H        -8.67695394295699   -2.32236804070152   -5.45434677474993
C        -8.12306396590259   -0.39331874174851   -6.34828413024039
H        -9.03330557249567   -0.05413768532516   -6.80091897054491
C        -6.87959044097905    0.25561226014079   -6.43262909010487
C        -6.41120332895369    1.28102114693332   -7.31326300143363
C        -5.18177636470011    1.06146481191619   -7.94666853482732
C        -4.30376257353910    1.91961837878709   -8.66458876408801
H        -4.43575092544199    2.97601606514005   -8.78702557209620
C        -3.26375259326652    1.17012859356762   -9.14131955003004
H        -2.42559680913056    1.52903384422090   -9.70484160370622
C        -3.46282014305139   -0.17592956461217   -8.73024906587865
C        -2.76211154945810   -1.36022187639503   -8.97892448085102
C        -2.97423032933983   -2.49876358903056   -8.14765474566924
C        -3.19160250099396   -2.57788740808143   -6.75709640082290
H        -3.18025855060147   -1.72166459514017   -6.10818522005537
C        -3.30150681855054   -3.91165301031114   -6.36739297052045
C        -3.18816170817751   -4.65275505476961   -7.58893555886611
C        -3.32108063826614   -6.03102262931239   -7.75514979517205
C        -3.37142735702719   -6.90873130942859   -6.65982686644497
C        -3.68606707963407   -8.30662529786457   -6.72070336567835
H        -4.01088978394061   -8.83638662223293   -7.59409887115288
C        -3.53105094170102   -8.80202858510406   -5.46990823890598
H        -3.70135005317301   -9.80847869881756   -5.14374208869044
C        -3.10737338725483   -7.71330502915451   -4.63338072142354
C        -2.69922152764815   -7.84330766456316   -3.30020331112585
C        -1.38520096469331   -2.59388058250426   -0.65382804036040
C        -0.48616560590887   -1.58161901207712   -0.99154979111211
C         0.21246992434228   -0.86849700786832   -0.02450465007089
C         0.01219464542451   -1.15660793530814    1.32285030616544
C        -0.89370234411452   -2.14939792253031    1.68591895744154
C        -1.58303427952663   -2.85138616168983    0.70226957444352
C        -6.09488759909150   -4.04827543951915   -4.84715586328861
C        -6.04548745242894   -4.98500721167322   -3.79812251650862
C        -6.24910364701160   -6.34271837388123   -4.02052720716495
C        -6.50115927835697   -6.80083215105820   -5.31290649302930
C        -6.57481740224594   -5.89297316603262   -6.36536501093930
C        -6.38974240847470   -4.53792646801246   -6.12480300047388
C        -7.25838240604051    2.42619220325114   -7.59433496656672
C        -8.02045992840617    3.00834828585077   -6.57020316357201
C        -8.85175347362769    4.09607134514686   -6.79128856532143
C        -8.95173978578983    4.64434320334152   -8.06804904763345
C        -8.21639030276951    4.08245440841241   -9.10875942222324
C        -7.39147993166087    2.99127040835106   -8.87012713933350
C        -1.85250741226447   -1.45935461869418  -10.11593597112772
C        -0.64306978624107   -2.16322093876710  -10.02226626725787
C         0.24946963329869   -2.24802984743828  -11.08192588119137
C        -0.04495935977515   -1.62209695869489  -12.29078554571979
C        -1.24660528156799   -0.93057052460881  -12.42205276366080
C        -2.13040065048144   -0.86055944159108  -11.35286820550236
C        -3.40668866651810   -6.60373596124600   -9.11081119930654
C        -2.56460666121747   -7.64035507101624   -9.52227786747619
C        -2.66556178377123   -8.20670865707940  -10.78853612228399
C        -3.62324971371815   -7.73821234490411  -11.68470956762751
C        -4.46316249148411   -6.69485159885846  -11.30551038743117
C        -4.34597977132631   -6.14168017862171  -10.03573298412318
C        -2.59326128585994   -9.19746989053669   -2.72255530455557
C        -1.78856258336462  -10.18496254764576   -3.29079090866960
C        -1.68895223911889  -11.45466655434461   -2.73224413375985
C        -2.40370516764852  -11.76014094188638   -1.57716157424551
C        -3.20576947223760  -10.78757988678965   -0.98627646007688
C        -3.28911810606187   -9.52201880289500   -1.55697284144811

