51
CSD_code = KISYIU | q = 0 | S = 0 | Stoichiometry = C21H28NbP | MND = 12
Nb       10.34150724078421    1.82473078444712    1.78170555208320
P         9.79363064730845    3.90273650026711    0.38928018623914
C         9.21222589063959    3.66332247220130   -1.33729922818422
C        11.05932372459370    5.20552895198943    0.09797953707570
C         8.43528314002691    4.93058810549908    1.06409987200413
C         8.29789738085131   -0.58927229638660    3.14802514844331
C         7.03264166842092   -0.51138079121650    3.74560125843134
C         6.61188417317168   -1.48138738622766    4.63292574771501
C         7.43492699868515   -2.55312353231250    4.94248823327834
C         8.69028437022553   -2.64125795039143    4.36157197875469
C         9.12223428782543   -1.66858213491423    3.48208155224800
C         9.39195542520452    2.87672128548528    3.62823270180712
C        10.42629565005907    1.96873881949017    4.09598112050496
C        11.71998736445448    2.23588610729236    3.66325708423308
C        11.91889734096727    3.32124690335494    2.76814358442519
C         8.72678757500673    0.45378091880338    2.26080458843465
C         8.30470845060101    1.20099113629217    1.29057177611808
C         7.09850927051609    1.19862594106954    0.40638548570569
C        12.54867031876042    0.95042596701813    0.98072900975719
C        11.92503536985553   -0.26185950158212    1.32960509396612
C        10.90097466175349   -0.50920823309086    0.40169088773762
C        10.84902387955526    0.57103685939330   -0.49062819512842
C        11.87480838262823    1.48239346950470   -0.13568396185336
H        10.00669681853088    3.20518759933903   -1.92323658527578
H         8.35062731618387    3.00118273153580   -1.33433664137613
H         8.94050039887807    4.62170765445538   -1.77996474649202
H        11.92616084898263    4.77042182387660   -0.39465394999819
H        11.37453448720382    5.62168922824371    1.05146244167408
H        10.64457565135484    5.99629938060688   -0.52711663351946
H         7.58212010217036    4.28846961349228    1.27234754996555
H         8.76321630014228    5.37764544315173    2.00007968162683
H         8.15906160829143    5.71420092805378    0.35821828977031
H         6.39433475491273    0.32826893201881    3.50813258082956
H         5.63319497923240   -1.40579488638765    5.08661247472660
H         7.10148972020261   -3.31282277962646    5.63455667294234
H         9.33749436530401   -3.47326089025247    4.60346454768858
H        10.10539490908289   -1.73711709243259    3.03768264983514
H         8.39246091672390    2.61189927510094    3.98017566728778
H         9.58818687339043    3.93394447428889    3.83356068800021
H        10.21790621005640    1.17276041633662    4.80769180158340
H        12.54003942390920    1.57642276034406    3.94945839495978
H        11.47160053758330    4.27159173226564    3.05861379563865
H        12.94025253601732    3.46374214709597    2.41611475480596
H         7.37059491293611    0.88648818490795   -0.60434816712459
H         6.35094562218355    0.50084681017897    0.78919673127086
H         6.64992113091308    2.19180952112032    0.34876185807703
H        13.48066644092373    1.31849558323604    1.38937878209458
H        12.26980067635640   -0.94353407069288    2.09520868823699
H        10.26809583354953   -1.38464986974075    0.36707744274747
H        10.22941635869284    0.62616451250825   -1.37688443861447
H        12.22731705438451    2.30505844099104   -0.74710334516866

