81
CSD_code = KISZAO | q = 0 | S = 0 | Stoichiometry = C31H40ClN2O6Rh | MND = 6
Rh       11.76310654353087   14.15705004204434    3.85028930579548
Cl       10.40312778505107   14.15308382255830    2.01900606478937
O         5.82009306780083   19.49036866662451    4.97795767053615
O         5.58133800654480   19.08525147721947    2.49237305818369
O         7.44010465047317   17.40954688810321    1.07041549412857
O         6.24096693451181    8.16617337503282    4.12489727480482
O         5.23390416073207    9.63091410153130    2.01288001126363
O         6.38698540497539   11.87206514252698    1.24435542302418
N         9.41512345523203   15.11691035613709    5.47137633241860
N         9.39188423464133   12.97815265341776    5.28319760281204
C        10.09414569572815   14.07756995838605    4.95028748887444
C         8.29068748865308   14.67302684208201    6.11583153269941
C         8.27597504809753   13.32596813903499    5.99789381993364
C         9.76531725100044   16.51050132048595    5.29504741183381
C         9.70247989641665   11.63432558224362    4.85319156253831
C         8.68448309430868   17.22673821085649    4.52773320891125
C         7.78418727858132   18.06362775654688    5.17034292096863
C         6.76115222822201   18.65651479573997    4.44710838110255
C         6.62726628114569   18.42141224352738    3.06400578095397
C         7.55892797793117   17.59204606313648    2.42071353834523
C         8.56948667851419   16.99740684343720    3.16913778370487
C         8.53687874469844   11.04494764684285    4.10060799230215
C         7.96479051462221    9.84553911061848    4.48915717994395
C         6.87125046991258    9.33582589828785    3.79576039800519
C         6.34993393526308   10.04119695111982    2.70256610894520
C         6.94047837839714   11.25758013557240    2.31659373988379
C         8.02731111034248   11.75211595693846    3.02428775749741
C         5.90615368431718   19.81200579551426    6.34138266784801
C         5.08469070302700   18.69558030187996    1.23255014447940
C         8.46964420212895   16.71911465810998    0.39476893675405
C         6.70483179917909    7.43922363836411    5.23390292062439
C         5.31860171681464    8.37701301614794    1.36808947607142
C         6.90006357141255   13.13044073252523    0.86614590399516
C        13.51007026942104   13.63246410912587    2.66895977770141
C        13.36065223716792   15.00314403651098    2.68440323606862
C        14.16009689513365   15.95211931976429    3.54779292213321
C        14.24175284607335   15.51414973570252    5.02307198342316
C        13.01902742470940   14.73537871368127    5.46264644177115
C        12.93249345256865   13.34191545360332    5.40145951336778
C        14.00488392822580   12.43365259001481    4.84410545236733
C        14.55229737381977   12.89727514768983    3.48118153587742
H         7.60181044770589   15.34224925130329    6.58753270620226
H         7.57266076189247   12.59841287817821    6.34614843668739
H        10.70853685624373   16.52645018815966    4.72941406041203
H         9.91674930761328   16.97305828478812    6.27585429693395
H        10.58172287473633   11.71307435227693    4.19363307180505
H         9.95744897448319   11.01557030093308    5.72041337336610
H         7.88778610101978   18.24603034850728    6.22826248528045
H         9.27753885551870   16.33577626956432    2.69763624400948
H         8.37393771854992    9.31439398041425    5.33392766443669
H         8.50891971372184   12.67076779220853    2.73104696211808
H         6.85220112907027   20.30930357564347    6.58237667141353
H         5.08262174988481   20.49809498895783    6.53313150401011
H         5.78995539453095   18.92660040145745    6.97690443042297
H         5.76253172847244   18.97356853305450    0.42282501524883
H         4.14402286647680   19.23539643902427    1.12063213925119
H         8.17485722945311   16.72043873847107   -0.65336069488944
H         9.42756302662895   17.23579764508268    0.50420537717515
H         6.76404877960730   13.86997821062343    1.66153329219429
H        13.68720317482416   16.93669649781167    3.49564718317613
H         6.05326181586722    6.56950662619122    5.30675166576485
H         6.63063839810165    8.02148103415216    6.15820340297106
H        12.90508781929417   15.47897399894194    1.81456112098090
H        13.13546684507346   13.08887697332711    1.80097262037177
H        14.82280552168183   12.35141238158159    5.56910409274529
H        12.31231616985261   12.85071928119666    6.15291499478896
H         4.89523951503436   17.62069483932120    1.18781375513981
H         8.57809081841671   15.68877549198404    0.74055258668019
H         7.96116579597875   13.07621382947915    0.60648870413264
H         6.32509146485637   13.42936039916086   -0.00863513381409
H         6.15036587818847    8.35851519101572    0.65539041337040
H         5.43609188831429    7.55911342475635    2.08310356901843
H        15.16767417465041   16.05641984144843    3.13044153771212
H        14.34004315529114   16.40511527733737    5.64706395419391
H        15.13159543308175   14.90596175348722    5.19212736221748
H        15.41965626118780   13.54439369292106    3.61827083754212
H        14.88847740306562   12.02218808994698    2.92109004507755
H        13.57460270091886   11.43440489554545    4.73182037346537
H        12.43729736919592   15.22538851719858    6.24277790598766
H         7.73838550063303    7.10431429960141    5.09516648154474
H         4.37938296163711    8.26037425611985    0.83017973326709

