73
CSD_code = KISZOD | q = 1 | S = 0 | Stoichiometry = C34H31BrIrN6(1+) | MND = 6
Ir        1.61838692454544   19.68668738030264    4.39905649861325
Br       -4.29442008680583   15.20135231544407    6.04559141843572
N         1.86746641014673   18.37254631874822    2.85970764792435
N         0.91096686557894   18.41739091510550    1.89880328134732
N         1.29947836026288   21.25428134644750    5.67643304254733
N         1.80302638745984   22.44397728629687    5.26814454021691
N         1.08313943340151   17.99582423171319    5.72476163690292
N         3.42897965712174   19.34794322243618    5.55409042022500
C         2.83934214286369   17.57254049243249    2.42287693668775
C         2.49800538011551   17.09859635874564    1.15624778648925
H         3.07461912961869   16.43785659295305    0.54287378660794
C         1.27116124704352   17.65436119414541    0.84113272829407
C        -0.22548475607046   19.19547034783359    2.19748584906117
C        -1.39030840236989   19.18989653728061    1.44297637379227
H        -1.48454499362097   18.59322705309179    0.55410376391451
C        -2.46472247427496   19.96116872215415    1.85069698407224
H        -3.37047503681955   19.96174855767114    1.26506669076384
C        -2.37745704560916   20.72014220402338    3.00233629671616
H        -3.21641406724847   21.32044652354928    3.31896756245958
C        -1.21371135491165   20.70874193415716    3.75667770467423
H        -1.17541589539824   21.30836831699830    4.65442197704875
C        -0.11578019156853   19.94702619185467    3.38175964579442
C         0.71560039392563   21.44850187769604    6.85682653463732
C         0.86004649685298   22.78809311261428    7.21763765066515
H         0.49771437437444   23.25308005777423    8.11083612753682
C         1.55003892156526   23.40287324671910    6.19013602595985
C         2.41411292086331   22.45567602416761    4.00045867313139
C         3.03020658074076   23.57121039131755    3.44882823985380
H         3.08474857759867   24.50422843244857    3.97795682903964
C         3.59605991712651   23.48474712517787    2.18880257398790
H         4.07280061099394   24.35195733615496    1.75991607160504
C         3.54768216994643   22.29498518383565    1.48819323011137
H         3.98391421196052   22.22720314407338    0.50357989149860
C         2.94200915649017   21.18156199780328    2.05181571658452
H         2.93020058196061   20.26676180585969    1.47836223329880
C         2.36614088156893   21.22888974424443    3.31437522873463
C         4.57085980876912   20.01797003845337    5.48900343534125
H         4.64319476523052   20.76092494484631    4.70600624124043
C         5.62763917524893   19.79635821002844    6.35666344498517
H         6.53484336607591   20.36999926157930    6.26096611955873
C         5.49377300177700   18.82494541245959    7.34121666918260
H         6.29751672067593   18.62478029543301    8.03207226402533
C         4.30956230931710   18.11735838525447    7.41379780900482
H         4.16199396667495   17.35271477081289    8.16047275942009
C         3.28865640810384   18.40558965168620    6.50373854604603
C         2.03376277245167   17.69600144654108    6.53628749455648
H         1.93840924636747   16.88495761996354    7.25810427153532
C        -0.13343066616971   17.32280636890514    5.81799224620258
C        -0.71672619858354   17.03199097128646    7.05567924877679
H        -0.22619603132298   17.33034769614042    7.97030968033522
C        -1.94636742538177   16.41060512114214    7.12452856887915
H        -2.39863791881101   16.20502807992372    8.08194400154740
C        -2.59989390900434   16.05243938568066    5.95430328945091
C        -2.02808092099279   16.31691278794088    4.71756709342515
H        -2.53871271770799   16.02710816339294    3.81308224677073
C        -0.80741122009219   16.95357508299930    4.65302011473525
H        -0.35405929710465   17.14092401756279    3.69614181294580
C         4.07607242041732   17.27354671847472    3.18946827433115
H         4.66895227939151   18.17726123185317    3.32268809452751
H         4.67135817286016   16.54309697573033    2.64909586306686
H         3.83681218031282   16.87060272473503    4.17208131802968
C         0.51816992681925   17.47729127230276   -0.42395966789983
H        -0.37927748014527   16.87799789022852   -0.27310716118405
H         1.15269748121621   16.95595521886998   -1.13611082741040
H         0.23504766391634   18.43854162325680   -0.84896689339812
C         0.01116954440952   20.38849210355890    7.62117061543592
H        -0.58913492757079   19.77467221008670    6.95362768562821
H        -0.63755250847171   20.84600667785903    8.36325258266628
H         0.72601137159528   19.75102451632499    8.14162981370904
C         1.91975972257925   24.83735534594942    6.12105048287995
H         1.49061973104066   25.31313400472670    5.24093883255521
H         3.00058526312403   24.97094970071544    6.10685252943931
H         1.52950049355848   25.33727055002204    7.00365350042751

