68
CSD_code = KITBOF | q = 0 | S = 0 | Stoichiometry = C25H29AuB10NPS | MND = 2
Au        8.18380792653931    2.64909220527797    2.25996757405283
S        10.39023530472753    2.23748363796685    2.89747939213952
P         5.98300592329987    2.88835470499792    1.72484925024402
C        11.30654433253019    4.02753064169076    0.72821000496175
C        11.34635956353166    2.54806434587921    1.40210455690549
B        10.58963803597867    2.70966976453929   -0.12818139881623
H         9.41723483944927    2.64452486797254   -0.15068438246821
B        11.51700397050152    3.93925162753877   -0.97563774222394
H        10.93457552511094    4.73704999280432   -1.61770220545220
B        12.84349055273637    4.46441447344387    0.06769577537235
H        13.13460797456141    5.60496296331509    0.07959985355493
B        12.71742620185823    3.59071957967243    1.59122943780829
H        12.84896186254963    4.06585916846875    2.65653884069542
B        11.61721882563771    1.33746730742987    0.20891084255903
H        11.11352337251925    0.29116673015140    0.39101743355979
B        11.75202614710586    2.21057967467909   -1.34112950170023
H        11.38779931087923    1.73544842021032   -2.35467980132640
B        13.15987449805695    3.29904240909215   -1.22167734020815
H        13.79582388407016    3.59575695818867   -2.16651291797183
B        13.90182126237908    3.08101645515639    0.39314457212520
H        15.05360840076156    3.21043038459592    0.59359556449771
B        12.92013761135034    1.87668423108914    1.26819540759831
H        13.27670718521659    1.18164861012568    2.14366149415331
B        13.21925820933791    1.67900798767139   -0.47548311753577
H        13.90188155747835    0.81233457812667   -0.88447949732188
C        10.43102840363741    5.06958851479700    1.30524507231133
N         9.10769228222729    4.91067469321998    1.20220692134275
C         8.30475887020231    5.86532561545578    1.65170319474734
H         7.24500758026374    5.67694847626306    1.52005069512017
C         8.75003229644294    7.02418193706826    2.25235134474521
H         8.05033951030981    7.76825999519394    2.59858965536051
C        10.12173134434521    7.18574420102354    2.39986547774033
H        10.52343384419809    8.06642272778603    2.87946747471960
C        10.96720182190989    6.20464364745853    1.92276518342850
H        12.03452743083015    6.31028155680732    2.02376742201880
C         5.15501179938924    4.35437686540231    2.40230497229760
C         4.41872244905535    5.25009254776064    1.63500150456709
H         4.28015691604756    5.07027602657509    0.57770380266353
C         3.86953338579404    6.37165312396255    2.23192403645010
H         3.29677501451015    7.06747417585257    1.63659702772133
C         4.05306418255616    6.60403372850848    3.58515015745371
H         3.62261733732414    7.48148997774607    4.04406885339278
C         4.79327108900383    5.71545937920211    4.35088086192757
H         4.94102587776196    5.89994035499160    5.40450093219514
C         5.34925856303819    4.59741542487545    3.76092068298043
H         5.94287524725822    3.90083382372601    4.34037555773478
C         5.64115875814835    2.96831287784425   -0.05518675604520
C         4.51562609177831    2.39224786321452   -0.63648669032854
H         3.79421864390546    1.87216788638541   -0.02123023601991
C         4.32854673618058    2.48770815390343   -2.00357860159409
H         3.45500824714333    2.04189203349626   -2.45622803815355
C         5.25800400468185    3.14843824558020   -2.79142164015664
H         5.10730527208415    3.21495977475300   -3.85852246397795
C         6.38253299245230    3.71672287764050   -2.21416625984184
H         7.11217219934886    4.22267236410823   -2.82809405843944
C         6.57813069780081    3.62650764488418   -0.84837040015659
H         7.45847509742749    4.05521827651759   -0.38963163734539
C         4.93101043497591    1.52324912268792    2.29386545612681
C         5.45521574895906    0.24031404037532    2.15697387779806
H         6.44705340896701    0.11784405921062    1.73964322581600
C         4.71650687068995   -0.85609320126649    2.55815981894756
H         5.12368118191452   -1.85007108038242    2.44972439126567
C         3.45665837375672   -0.67576319866202    3.10798297554819
H         2.88048380858497   -1.53110776849511    3.42757337135835
C         2.93700871662821    0.60009007571806    3.25419237330135
H         1.95677739379474    0.73874132046044    3.68620138851754
C         3.66844439355567    1.70230409551075    2.84834834885355
H         3.26214340293636    2.69796602290246    2.96227862837602

