101
CSD_code = KITCOF | q = 0 | S = 0 | Stoichiometry = C31H54FeO13P2 | MND = 6
Fe        2.29564736286962    4.17193064186074    4.49506718400216
P         1.89175247317170    2.05450224816684    4.26836228753204
O         2.72589852003406    1.24465933700589    5.38037659462137
C         2.81655857138500   -0.19048070126926    5.36705539146431
C         4.19795364107587   -0.58203299764564    4.86112787440421
C         2.55786144240173   -0.71528792925676    6.77387352262641
O         2.32573891336559    1.20053322497375    2.97468893106289
C         1.48576808303079    0.92741826495039    1.85194234024537
C         2.26567943578564   -0.02930864785849    0.95831796686504
C         1.10345685689208    2.19819113845958    1.11128176597900
O         0.39427726736692    1.44027664922453    4.40634696752334
C        -0.71521490618907    2.10555111858390    4.99875440254851
C        -1.16298091333556    1.31006593388769    6.21788454924381
C        -1.81753130852268    2.20796988036762    3.95063991133452
P         1.42348101870749    4.69563660302833    6.43292030388137
O         0.02681116924859    5.47973311446354    6.18797197619537
C        -0.74716073941252    6.02926546776590    7.26247191571486
C        -1.20772098092613    7.42314214412800    6.85522947967219
C        -1.92969432051413    5.11181220394792    7.55272690436249
O         0.93284376307826    3.63411247611480    7.55346126349804
C         1.64171566428240    3.28037766357570    8.74689907121409
C         0.75342789066973    2.30347187617919    9.51071318832569
C         2.99875364353177    2.67211142984238    8.43294131254872
O         2.23959612326370    5.65979117589783    7.44456417671242
C         3.25665852360083    6.57935329840206    7.03758921138937
C         2.72444196069819    7.99732294614971    7.19104593105609
C         4.49133729813004    6.34633290824196    7.89929371036853
C         3.79731575698818    3.78721643987524    5.26688176330098
O         4.74988611279687    3.49969638733792    5.83270579954284
O         0.51658610327938    4.67435156785665    3.58740631415579
C         0.56375299121008    5.91674593128791    3.44670900265287
O        -0.54147859566583    6.63318709057845    3.26130279786080
C        -1.76476199289209    5.91855325301988    3.30804250054906
C         1.80637264879559    6.60284967780736    3.48516540814931
C         2.11294903186023    7.91696165115053    3.79826809590050
C         3.51578037457945    8.02524197465812    3.88774683757935
C         4.21786666171765    9.25056006793329    4.23830587576714
O         3.69631893232479   10.31615107835992    4.48674961242822
O         5.55864912981353    9.07703243450649    4.27847104943201
C         6.31627749047249   10.22565320906164    4.60728483344715
C         4.09072416849996    6.77710218254385    3.61933589734717
C         3.06383489056817    5.85184247724012    3.36100828297963
C         3.13937585647993    4.56240819361473    2.70445517477676
C         4.44001212895362    3.94789893734203    2.46646438257981
O         5.46412278725062    4.14163562696643    3.08198548742305
O         4.37798699083980    3.06167777860934    1.43555026835644
C         5.55156879199988    2.30661901409039    1.20009085945434
H         2.04841268424605   -0.58307374374025    4.69034708251036
H         4.30803652845730   -1.66361052884670    4.85844796869037
H         4.95832206758423   -0.14274336111659    5.50149834194948
H         4.33316306010600   -0.20074334004367    3.85330497585284
H         2.56329846380131   -1.80237784044927    6.76584365685151
H         1.58950239633244   -0.37178112232803    7.12803485678409
H         3.32952847843739   -0.36377751292844    7.45365053573901
H         0.57554875647687    0.43605386398721    2.21900178583076
H         1.66549343076057   -0.30569693989713    0.09578428977159
H         2.53236336515609   -0.92762546923873    1.50901756465299
H         3.17622918358790    0.45762921672094    0.62137162213978
H         0.38997283562431    1.96889421774181    0.32291695765726
H         1.99268813993431    2.64388219719830    0.67437176324898
H         0.65676348145698    2.90079520802312    1.81161270679023
H        -0.40074847674876    3.10818525322553    5.30935083418443
H        -2.05698113414581    1.75306934565615    6.64781373553634
H        -0.37207284045740    1.31931317216084    6.96112180410808
H        -1.37628603923063    0.28185416510817    5.93359580031430
H        -2.69376076993640    2.69379920022740    4.37099992087206
H        -2.09462367449420    1.21459910970151    3.60466925015886
H        -1.45965555986798    2.78646957535591    3.10452960941784
H        -0.10890611447338    6.09637137025736    8.15233807129777
H        -1.78795967541644    7.86981207944337    7.65857240220820
H        -1.82144672426763    7.36693425053821    5.96015931410903
H        -0.35211715591858    8.05797403174152    6.64366780254137
H        -2.50020499910841    5.49600574410638    8.39457831703556
H        -1.56916061248084    4.11406572957897    7.78511763788467
H        -2.57923573449740    5.05385588129278    6.68203354030723
H         1.77619487712308    4.18846465053167    9.34688988165399
H         1.16445924083603    2.13328066751449   10.50203835386481
H         0.70129659191387    1.35354427877695    8.98539283399627
H        -0.25134950134715    2.70563163215807    9.61143154703841
H         3.40642485486001    2.19383114231660    9.32016337570863
H         3.68620420395932    3.44289614340414    8.10209155371463
H         2.89636048530831    1.94456659450281    7.63389539604065
H         3.50769954002102    6.38389122472776    5.98773700382378
H         3.48233343192271    8.71666962698296    6.89754421176810
H         2.43838655848824    8.18040007432626    8.22484845843207
H         1.85871311194724    8.13716012188004    6.55018113872273
H         5.24582638510281    7.08800439503503    7.65467946293532
H         4.90449883645513    5.35994621086024    7.70878016946213
H         4.23661051473564    6.42841904599107    8.95361426254571
H        -2.55328355462619    6.66768482499182    3.32966434292942
H        -1.79433713042218    5.28904833805762    4.19954825575037
H        -1.87415172287638    5.28862234383950    2.42165718403301
H         1.41529038181162    8.70694536326912    4.00166214091378
H         7.35982529263779    9.92172121398076    4.57919765072407
H         6.05044997299714   10.58872780067064    5.60363185102999
H         6.13085439628636   11.02601262629075    3.88685848046583
H         5.14049800590532    6.56929232095441    3.54789471107018
H         2.45454395047836    4.41875921407059    1.87364493522773
H         5.47635891395239    1.91167557864700    0.18858992177579
H         5.62202719535252    1.49019851955717    1.92331235038142
H         6.43550509269252    2.94043585017531    1.29861999952438

