48
CSD_code = KITDOH | q = 0 | S = 0 | Stoichiometry = C10H28B9Ir | MND = 10
Ir        2.00198672358533    5.33716052639893    9.28484106187967
B         3.89345583818169    8.02417994067972   10.36917593431964
H         4.42319631093902    8.93861659620204    9.84890754593687
B         2.34879452764316    8.13242185067843   11.29338959806754
H         1.79994117853717    9.15086092474219   11.52067473895171
H         2.74471158854378    7.67221968394461   12.47727470323206
B         3.97247985644136    7.81296142811837   12.08047444982516
H         4.53748690894750    8.53644427052690   12.81910246785197
H         4.39044432403801    6.59971423877621   12.26833833837579
B         4.75229296818347    6.56506532499456   10.98872109348452
H         5.92659830792416    6.45957446921274   10.99728843433735
B         3.83332744190475    6.44872406239497    9.51618236373546
H         4.47473903927619    6.33191484838826    8.53352920424124
B         2.34141192974262    7.42258272037316    9.70485526944428
H         1.81499147148609    8.06852615951706    8.87043921624132
B         1.28363358036855    6.62227118610260   10.86117239991749
H         0.11544766485244    6.78162963604153   10.89980031268555
H         1.56275170870638    5.95902579756960   11.97943986485000
B         2.00961725271559    4.95140699622502   11.32319407938754
H         1.43629715009540    3.99576259487755   11.71000785594565
H         3.21063231631447    4.88610052028773   11.77121109485025
B         3.72097627712921    5.03159536685935   10.55177802143989
H         4.32447278195875    4.03527469787257   10.36576851891943
C         1.40209144949335    3.37289067476464    8.32813413448299
C         0.24051573044138    4.19071378957601    8.44143048095427
C         0.43378522146578    5.34069830948771    7.62550785977060
C         1.70942042819460    5.23440015300246    7.01000902941884
C         2.30862678524484    4.02152036002972    7.44328170830930
C         1.56764690601700    1.99752756155492    8.89410388007052
H         2.61166308786229    1.79187949768594    9.11995029942165
H         1.22235343360495    1.24670387875706    8.18013010909737
H         0.99231337542027    1.87992144479215    9.80941141652936
C        -1.02650322947237    3.82626339840995    9.14918588435972
H        -1.70535660870090    3.30275924641027    8.47258317386558
H        -1.53640737960796    4.71415974256734    9.51632936123353
H        -0.82723865133310    3.17396451739317    9.99634328140758
C        -0.58291693593349    6.40152912707535    7.34984638274390
H        -1.26137532595903    6.51859565561953    8.19144942758385
H        -1.17554986104287    6.14460564013519    6.46921620826628
H        -0.10344251133633    7.36013062368927    7.16499101929588
C         2.26749376368025    6.16618139389225    5.98309327091014
H         1.95425201901281    5.86330393501050    4.98133086857405
H         3.35457855045965    6.16752929033171    6.01023158014765
H         1.92210392866580    7.18336940125114    6.15182757734137
C         3.60096439258921    3.46143302138721    6.94184052603639
H         3.45070681113763    2.94244922096506    5.99275719897814
H         4.01954993621215    2.75247877415498    7.65191924147170
H         4.33073753636907    4.25205750127279    6.78152951180943

