81
CSD_code = KITHED | q = 1 | S = 0 | Stoichiometry = C36H41IrNP2(1+) | MND = 7
Ir       13.06755506129173   -0.61349238650103   11.80141705854838
P        11.86191606997317    1.45358825466229   12.30045071458662
P        15.18093027718218    0.50872244077921   11.30732103157131
N        13.80841965463269   -0.25885232307872   13.90325077814597
C        12.13347537244129   -2.47681072790966   12.32401244186851
H        11.87125513238007   -2.55327404339722   13.37942883059676
C        13.50420458109094   -2.68436691186304   12.00985423433792
H        14.15998751702473   -2.91343999337411   12.85146268417666
C        13.98362378752154   -3.35035658257805   10.73891352245594
H        13.72809454161520   -4.41429563953596   10.76647004491538
H        15.07232488805041   -3.28154633247186   10.71281643837060
C        13.41435494300350   -2.68838763066782    9.47631370774305
H        14.16718366253739   -2.72155322091807    8.68858214637357
H        12.54086540925076   -3.23423934486804    9.11809983062591
C        13.01598147243654   -1.24463632863757    9.70900424950065
H        13.56144896235534   -0.53625104211649    9.08750329550431
C        11.72394512983392   -0.86337048199087   10.10758738828011
H        11.36019367163320    0.09111962720690    9.72704340145900
C        10.60925213660472   -1.84329915651145   10.40022950873832
H        10.27700194810217   -2.28521924138524    9.45582420026981
H         9.76522779123996   -1.28376241419016   10.80623526548046
C        11.02088188285619   -2.93804808325409   11.39643401081892
H        10.15108341164042   -3.22276646142936   11.98992638090388
H        11.35266352727162   -3.83225920709767   10.86784971513586
C        10.24122745890843    1.36625836811083   13.13894403598996
C         9.70916930784322    0.12543450336442   13.46636131232628
H        10.24741586919789   -0.76775028818802   13.18606786193447
C         8.50152947551790    0.03799238162269   14.13655549955701
H         8.09180729451020   -0.92909184515302   14.38711485339174
C         7.81850502794786    1.19185311479211   14.48167226566409
H         6.87452233726135    1.12656102958749   15.00029087885282
C         8.34620292900115    2.43279942738953   14.15872182241738
H         7.81316641256863    3.33247462641007   14.42662892758231
C         9.55279765010018    2.52417991297224   13.49085211735822
H         9.95723863685441    3.49353896754819   13.23412788542245
C        11.60671461907397    2.94432234083274   11.28752454480647
C        12.38203189777541    4.09489977755508   11.36978166899799
H        13.19025856122648    4.16907506292513   12.08119504235361
C        12.11722729309982    5.16880862572935   10.53726493867105
H        12.71713728575416    6.06293720452135   10.61608291792029
C        11.09300980415363    5.10006097071614    9.60857610073844
H        10.89193733187258    5.94062685283168    8.96250564712509
C        10.32316601028115    3.95094745338111    9.51260013096667
H         9.52157980093084    3.89396663755622    8.79201701974650
C        10.57943547333091    2.87996864156123   10.34589572601273
H         9.96917973506138    1.98749650902741   10.28917344181621
C        12.89171451051180    2.06417516429149   13.71694246169057
H        13.81913708828300    2.48016521153204   13.32203666347948
H        12.36352481257955    2.83971627071842   14.27754800540857
C        13.16685072060140    0.86592051887268   14.61844088425672
H        13.78615099117671    1.16708498541626   15.47305301571449
H        12.20557438923098    0.51397876304098   15.00713985257567
C        15.28345024707627   -0.24531345348327   13.97584091961685
H        15.62407533154987   -1.25855475557569   13.74790654765112
H        15.60555279690691   -0.00739485323942   14.99918783601334
C        15.94143290778046    0.72268584005004   12.99467711116527
H        17.01641144964532    0.53096758355161   12.96465412315920
H        15.79342452402689    1.75658368331691   13.31286293653573
C        16.42789693500100   -0.46341968061817   10.40465794423014
C        17.13399562620921   -1.49411241979464   11.01722136847849
H        17.01569161808501   -1.68713069492316   12.07382660189240
C        17.99919353288191   -2.28182425693867   10.27964857193200
H        18.55024686772916   -3.07267637024339   10.76610441530694
C        18.15549569549967   -2.06181262805419    8.92116505074940
H        18.82858129332797   -2.67989147338882    8.34774344484652
C        17.44434565485632   -1.04725753713684    8.30163891265581
H        17.56316545173731   -0.87121015931187    7.24309179319992
C        16.58158976364471   -0.25551948805703    9.03612474215178
H        16.03205935999230    0.53809777216839    8.54884060227218
C        15.44237752535647    2.14093033295691   10.54029595558993
C        16.57522374484066    2.91052862213729   10.78771376842153
H        17.32971605187207    2.56301809927109   11.47883078377702
C        16.74184804647365    4.11861726740668   10.13588912727725
H        17.62000821757082    4.71581890326517   10.33150633885244
C        15.79330644514688    4.55794120495885    9.22506603319200
H        15.93450532236384    5.49751040076537    8.71334326825491
C        14.67024719067075    3.78982247968240    8.96699014302258
H        13.93215569426902    4.12582173846884    8.25454302304042
C        14.49275210281349    2.58755246571762    9.62751197449489
H        13.61211713535896    1.98549268018756    9.44024767506842
H        13.52234991068017   -1.10377526097118   14.39912258395818

