64
CSD_code = KITHON | q = 0 | S = 0 | Stoichiometry = C28H32IrNP2 | MND = 6
Ir       -0.41898259951609    1.08255980300949   12.02571767126090
P        -1.66649760252100    2.45005315387422   13.30083118608813
P         0.49872493843882   -0.70996428493598   11.02880783232554
N        -1.09902137873481   -0.45948418782080   13.52621978934600
C        -2.29900833987026   -0.03822214078344   14.24113182294063
H        -2.53289081554288   -0.72978563489042   15.06909074782673
H        -3.13222096900181   -0.05863674758461   13.52973204521178
C        -2.10595815652200    1.38179032611957   14.75926808023015
H        -1.25101303544169    1.42048331188446   15.44383559650539
H        -2.98658157142486    1.74417537050537   15.29402239415143
C        -1.12941175227915    3.96775466406545   14.16747013860011
C         0.17110870220500    4.41869649318308   13.98896036146978
H         0.82308362452324    3.85888776216658   13.33266472634913
C         0.60433832950418    5.56021371967983   14.64108906106809
H         1.61619758296114    5.91157395168549   14.50064507134391
C        -0.26103580568916    6.25358327799002   15.47056683920891
H         0.07498288548219    7.14498772781210   15.98033929264731
C        -1.56343208401231    5.81036906353195   15.64342644688906
H        -2.23925699126353    6.35716823199602   16.28556500661572
C        -2.00070634609029    4.67277330167894   14.99166133568914
H        -3.02147210507964    4.33489683547507   15.11225321560412
C        -3.27465808522666    3.04695727825226   12.67813151816737
C        -3.17257601885506    3.99624959446946   11.66337436894353
H        -2.18320375065473    4.30130334254664   11.34484415136360
C        -4.30602490281029    4.51530079148601   11.07149564142549
H        -4.21893508188660    5.25331419610023   10.28757628087703
C        -5.55838336824567    4.08133471816486   11.48024916869490
H        -6.44907249115185    4.48264703067752   11.01910449628543
C        -5.66602623610418    3.12447535817309   12.47356125396578
H        -6.64099894554815    2.77741610567409   12.78664733608517
C        -4.52965335274939    2.60396986530830   13.07118944627259
H        -4.63977123300451    1.85324040709170   13.84168740213656
C        -1.21562577972726   -1.77760158706039   12.91291270083207
H        -2.04590517508734   -1.73646186893386   12.20015381345342
H        -1.44505158071423   -2.54970493277427   13.66795937287537
C         0.07813608609299   -2.11436625667017   12.18223143116940
H         0.00540125044145   -3.06791677107751   11.65410878047682
H         0.90402384323922   -2.18267774953693   12.90002061591003
C        -0.12108439236435   -1.26192206837440    9.40568908721571
C        -1.14260148640844   -2.18227766818742    9.21592379491119
H        -1.60350772050964   -2.67589689001210   10.06022786500515
C        -1.58255324166931   -2.47624964191520    7.93639641927154
H        -2.37429664095797   -3.19862760209015    7.79473002186255
C        -1.01659567116891   -1.84695803601243    6.84143977619880
H        -1.36395868855766   -2.08046824470573    5.84552559445736
C        -0.01288616593324   -0.90847151207250    7.02639423531433
H         0.42055318500879   -0.40558680594414    6.17412729872536
C         0.42718283223383   -0.61347748930693    8.30133008322500
H         1.19890255859670    0.12815301170384    8.46576669681132
C         2.27637888195794   -1.07074236130836   10.78211491233897
C         2.69157131539479   -2.27865441589709   10.23011535654983
H         1.95627870649617   -3.00447734049266    9.90855700934495
C         4.04007877433114   -2.54238302709217   10.08298328140655
H         4.36216692216742   -3.48152905332740    9.65597054554648
C         4.97961578541249   -1.60284116964396   10.47963617153370
H         6.03279743466527   -1.81323924576165   10.36166332704183
C         4.56895040353547   -0.39568168229936   11.01950146961762
H         5.30160170403546    0.33888519675397   11.32087064213142
C         3.21886554362897   -0.12930529700680   11.17045491176735
H         2.87031670198134    0.80596144035781   11.58620485605210
H        -1.70370942875109    0.79557025646840   11.17133099807134
H         0.06128319771769    2.14616348557499   10.99433889819985
H         0.84917566381879    1.33901829636154   12.90890694077488
H        -0.32644786280578   -0.48811565632298   14.19425336629793

