33
CSD_code = KITJEF | q = 0 | S = 0 | Stoichiometry = C8H18Cl3O3Sc | MND = 6
Sc        4.99370433981325    8.76557852399181   11.93847528599534
Cl        4.99047637949907    8.43017951674232   14.25825088847808
Cl        4.96355423887462   11.05489856242179   11.79590621307798
Cl        4.99848005444307    8.14702643196792    9.67928245254302
O         2.81799896778117    8.75364772268932   11.95884550256278
O         7.16994843843099    8.82024047004736   11.92610545293694
O         5.04842689843478    6.47999481346345   12.08319448716984
C         2.01582434116736    8.90178295257146   10.77054650187750
C         0.58125527549819    8.94748582525673   11.27331084019107
C         0.74241317409859    9.80394463857571   12.52592472019177
C         2.09599716173257    9.34522358948344   13.06882767041467
C         7.88343170498793    9.22965756534254   10.73309802346328
C         9.26322943886272    9.72297672817978   11.18024802790640
C         9.38387633572700    9.16566601324000   12.59675257429289
C         7.93940900411785    9.24818292112682   13.06537470182682
H         7.31277802676962   10.01591064620512   10.22202268138354
H         9.71186344432162    8.12548808417348   12.57559276278691
H         7.66498363017598   10.28188525282286   13.32354206596148
H         9.28555610584584   10.81221751303088   11.20364616963985
H         7.69606832149650    8.58414543174047   13.89899207076398
H        10.05800378317356    9.74140237948952   13.22496955567978
H         5.07564843268001    5.86050057246769   11.33673493453770
H        10.05125704779621    9.37125494719986   10.51875089585955
H         5.05204270043668    5.97320500337838   12.91097128773453
H         7.94207000196469    8.35011238934778   10.08177353211786
H         2.23684557269598    8.05659718575873   10.11293538480656
H         2.28717236880155    9.84032804785002   10.26498365112807
H        -0.05477306776254    9.65599674427346   13.25025233308741
H         2.68268260141389   10.17735510779855   13.47780424349424
H         0.78227592417018   10.85896664597078   12.25481940719498
H        -0.09924080274256    9.37947111398536   10.54460885237014
H         1.99454007564221    8.56716235742729   13.83506062593053
H         0.24050007965615    7.94451430199349   11.53419620259722

