41
CSD_code = KITLAD | q = 0 | S = 0 | Stoichiometry = C16H16I2N4Se2Zn | MND = 4
Zn        4.28221192424723   -2.83732387183162   12.99769330116336
I         5.09531996479307   -0.78314287711736   14.24329892638407
I         4.76443078415818   -5.17523588308638   12.26117718770947
Se        3.44827196666184   -1.26695901445892   10.44753108421524
Se        1.38277327753494   -2.91205629183184   13.73689472631437
N         0.76637822278004   -0.52712902825353   10.19870034946446
H         1.03299090417831    0.44459908528783   10.18738921621213
N         0.99068412784868   -2.71104644839928   10.20989417612501
N         1.64537508363413   -0.13026803786851   13.29910462827288
H         2.65663744290979   -0.14371384725849   13.41648034594071
N        -0.44896287027028   -0.78607319551831   13.35847763534822
C         1.66460500084075   -1.54387651970930   10.27328888071005
C        -0.50285083933706   -1.04125618736652   10.10159053649022
C        -1.74700066393833   -0.44224452941463   10.01265817803753
H        -1.84992150676471    0.63091318851093    9.99380775065955
C        -2.84496518693242   -1.28428450818924    9.95085053765975
H        -3.83300814721963   -0.85674450020197    9.87920886073506
C        -2.70433880572409   -2.66995543256425    9.97821067033991
H        -3.58728054202077   -3.28777431945414    9.93086516197628
C        -1.46223082573977   -3.27463906450683   10.06403870849650
H        -1.35975290107209   -4.34678348238515   10.08916481039013
C        -0.35738736788288   -2.44032441745654   10.12229429191530
C         1.56918341602282   -4.02548592069722   10.20081915009774
H         1.43057897210161   -4.51535878751095   11.16785848515701
H         2.63466474668756   -3.94839363263053    9.98977355775755
H         1.09762982845650   -4.62760620876130    9.42542060328531
C         0.83704585497174   -1.19658364543497   13.47370191890933
C         0.88485726839233    0.98782619790860   13.06459939685238
C         1.22838385457256    2.30392655614422   12.80597233361818
H         2.25960460403360    2.61621343040094   12.78400996873792
C         0.18732188375262    3.18797462990650   12.58340587308966
H         0.41037792758890    4.22322516850140   12.37889025755628
C        -1.14320049295653    2.77544486225844   12.62064488867779
H        -1.92220799566013    3.50088240615164   12.44468749859317
C        -1.49246010618540    1.46158406675148   12.88070010032638
H        -2.52281785990985    1.14657357932307   12.91232994489436
C        -0.45642906696793    0.56827505949083   13.09993466446479
C        -1.62046965130668   -1.59727952060485   13.52844324048323
H        -2.18343397776369   -1.26294763713617   14.40142377762890
H        -1.31233769532169   -2.63126582535834   13.67782280116296
H        -2.25287055319445   -1.53298559562592   12.64194157416220

