40
CSD_code = KITLOR | q = 0 | S = 0 | Stoichiometry = C16H16CdI2N4Se | MND = 4
Cd       -5.61820698868901   -6.05855741284295   11.35414993414174
I        -7.85760125280221   -7.41633009760846   11.89397501129154
I        -3.47276531308589   -6.36170436630003    9.74066989855232
Se       -5.89304529983917   -3.00734975278648   11.92510456543136
N        -4.35232589929197   -6.23744480920771   13.44913035939722
N        -2.74689296097393   -6.80258406008001   14.87958281271487
N        -4.46402894222374   -3.20951439004405   14.33009731754534
H        -5.32414538183822   -3.23727341853460   14.85571267240639
N        -3.12314514126975   -3.15916953925716   12.59369096645232
C        -3.10940034405293   -6.62081390262813   13.59457792160324
H        -2.42704898156569   -6.78055813702579   12.77881613358692
C        -4.86625339982598   -6.16140905761381   14.72497721574721
C        -6.13166811632358   -5.79116388561885   15.17283805723225
H        -6.91558754793029   -5.52705983368835   14.47809553641869
C        -6.34414939613562   -5.79020329675131   16.53457920300032
H        -7.31488688284013   -5.51561352194711   16.91755480336368
C        -5.33684668717569   -6.14457818518113   17.43717805815526
H        -5.55515137616425   -6.13272895857819   18.49405291697530
C        -4.07727815491542   -6.51201755302790   17.01129713255368
H        -3.30194801506517   -6.78677043309600   17.70917154454790
C        -3.85360902815216   -6.51343373111214   15.64192815528068
C        -1.46421747401599   -7.21902336108671   15.36826795982966
H        -0.80197352317706   -7.40681921159680   14.52578995153756
H        -1.56506152629759   -8.13368026953520   15.95527918922208
H        -1.03205044897377   -6.43816391345486   15.99753479954417
C        -4.41946102806175   -3.13023579069807   12.97619736437079
C        -3.19246561825083   -3.34941665352343   14.82638820754248
C        -2.70374807301337   -3.50988891324411   16.11091334912746
H        -3.36565242951376   -3.53477769885944   16.96138671417905
C        -1.33209809368721   -3.64121075261260   16.24865542724453
H        -0.91231519563602   -3.76609221427105   17.23506305083024
C        -0.48104187750434   -3.61116270299380   15.14642378315591
H         0.58164781763091   -3.71782910408113   15.30030107432413
C        -0.96285430295295   -3.44585215200121   13.85936837430840
H        -0.30092067348741   -3.42121892892569   13.00944515326444
C        -2.33467727307148   -3.31524788594388   13.71188870581357
C        -2.62640276567327   -2.99099165197159   11.25605536097450
H        -3.46920303346443   -2.91516560150292   10.57004455089300
H        -2.00987004120445   -3.84238527619527   10.96789757825126
H        -2.03394932949064   -2.07685957457507   11.19271918919074

