69
CSD_code = KITQOT | q = 0 | S = 0 | Stoichiometry = C32H31Cl3P2W | MND = 10
W         6.07120662770142   12.10633518622248    8.49968550133202
P         4.74531426348073   10.60732967289547    9.96203337156911
P         7.91073141558870   10.67930186679629    9.29062636017307
Cl        4.50591757932614   13.84499900944927    9.09237960456815
Cl        6.66166140498061   12.41717997602183   10.90576476362271
Cl        7.60805393028405   13.98997491411561    8.37783127599438
C         3.64680337434193   13.46192829380461    6.11650479244681
H         3.40423441897681   13.40849576005985    5.05346369088050
H         3.93959585531448   14.48370616568762    6.35024856566694
H         2.75700281366528   13.21601335334530    6.69140793587268
C         4.75583765668097   12.50931174669810    6.41908822578998
C         4.61249846796837   11.18997352629230    6.91478267321305
H         3.66498689855272   10.67734941141672    7.01330952542622
C         5.90157025445917   10.54750136695985    6.91895186629091
H         6.05494150944988    9.47621848569313    6.86527410405598
C         6.84980918751784   11.53592100365264    6.46774378552150
H         7.85559887805325   11.33689372100951    6.12283969093972
C         6.12396199980186   12.72942279781476    6.18590824445899
H         6.54569522153120   13.62521383962977    5.74841091779592
C         5.76633827022352    9.07089932398185   10.11735189277213
H         5.33574204525232    8.37632447176771   10.84242551963351
H         5.72259014037128    8.60244709678773    9.12770321606190
C         7.20746823813944    9.41199514066149   10.47258350617871
H         7.83216377753631    8.51526455016291   10.44727013408142
H         7.26176447434945    9.84074223128612   11.47786118096091
C         4.22763255180320   10.99586446487639   11.67855242451269
C         4.42709105236724   10.13554006265660   12.75202793415217
H         4.95071596471237    9.19948009836332   12.63490725328188
C         3.96549521566351   10.47792776622389   14.01169127205549
H         4.13309215288483    9.80371478798600   14.83930695771769
C         3.29987411402182   11.67324107513271   14.21433488108602
H         2.94330132744068   11.93409392285705   15.19975238400228
C         3.10587197305003   12.53749596338365   13.14931603919928
H         2.60126264388460   13.47995860701468   13.30031131499788
C         3.56557460729476   12.20348094106627   11.89025953884466
H         3.44686136400803   12.89906198303397   11.07233061863933
C         3.12206262963877    9.95143353105324    9.42725554477053
C         2.17697345566134   10.92993349143442    9.11613266088225
H         2.47334909041030   11.97129837281650    9.15230760426132
C         0.89506893960635   10.57447818128676    8.74643950751636
H         0.16948082017024   11.33775127949497    8.50738800451313
C         0.54277804948106    9.23479491233690    8.67908012854301
H        -0.45837133369196    8.95222007885250    8.38976500194656
C         1.47753156986540    8.25990582386780    8.97955657157244
H         1.20546489560963    7.21585742527549    8.92387829638752
C         2.76405328971519    8.61190655316735    9.35501919324125
H         3.47663262054473    7.83486618169783    9.58604842604386
C         9.41626381320533   11.15278753065504   10.22245314819999
C        10.26454941514997   10.13538779022188   10.65618815509554
H        10.02933441082338    9.10276706960714   10.43806537366669
C        11.41798013430986   10.44042352268496   11.35245737552027
H        12.06635166163353    9.64512621533408   11.69089227678272
C        11.74488876688389   11.76215435481307   11.61054898670749
H        12.64690260574749   11.99816302626507   12.15574582189148
C        10.91830549466313   12.77588406653128   11.15912517138583
H        11.17473305446782   13.80794879173246   11.34544913611928
C         9.75775911062636   12.47644892016751   10.46611836085956
H         9.12190982259375   13.27190990665889   10.10772781704963
C         8.76914819354790    9.62248134185837    8.05967104061512
C         8.45145096985721    8.30659383097097    7.74829682367699
H         7.65378990152827    7.79381749685693    8.26692128169626
C         9.16442826812450    7.62784111155775    6.77373164528789
H         8.91392072739398    6.60187840693101    6.54486238248814
C        10.19367320264841    8.25613390878922    6.09538627861801
H        10.74832113935407    7.72123523277482    5.33906254885272
C        10.50947393163655    9.57413124104050    6.38865430786374
H        11.30925452614343   10.07024179982630    5.85896887230057
C         9.79906519460009   10.25116701387793    7.35990104299843
H        10.03300995737588   11.28212900475634    7.59706024884581

