45
CSD_code = KITQUC | q = 0 | S = 0 | Stoichiometry = C19H22N2PdS | MND = 4
Pd        1.49172934670503    3.12544033229025    4.52915936195611
S         0.15877517682044    1.90214851357357    5.85019416797877
N         3.30793601838319    2.07712360986418    5.01155588510620
N         2.82283197090703    4.09657426377298    3.04640213316667
H         3.16132747755623    5.01332792698939    3.34288449682550
C         1.12639873778380    0.77152116480776    6.68653111999984
C         2.49013409745296    0.61024489185947    6.71878591230936
H         2.83630588636226   -0.16047600233726    7.39667884268326
C         3.52500830396551    1.26246753211637    6.00227794006002
C         0.31906076331815   -0.12204447906022    7.54313479631163
C        -0.12484906546776    4.34397483712516    4.17848757598439
H         0.20613632393727    5.26172506470275    3.67283475234517
H        -0.61351805476822    4.61090951952227    5.12260063728590
H        -0.85718435224540    3.83101332760885    3.54301708416928
C        -0.82166548128985   -0.73871783090400    7.03618796780582
H        -1.10571136358866   -0.55453012696858    6.01096207925569
C         4.42028538531015    2.67551801858367    4.30252028690134
H         5.23793443522895    1.95913417809830    4.14049729937357
H         4.82417445710681    3.52524706261979    4.87620515569100
C         2.05174646016749    4.20938837262035    1.85362492751693
C         0.67259265243475   -0.35335025254181    8.87024968528125
H         1.53512340549171    0.14540036793876    9.28806232421774
C        -1.21261277670599   -1.81180701903178    9.14557785034891
H        -1.80457331977516   -2.46802212681066    9.76672100719079
C        -1.57627216445834   -1.58212395133284    7.82921526374798
H        -2.45381298174806   -2.06066337021727    7.41937995219584
C        -0.09007744792737   -1.18924372845761    9.66461733783449
H         0.19141392807106   -1.35282221380369   10.69504097136002
C         3.94642592121592    3.15929480917673    2.92930378185436
H         4.78743380266555    3.61763720037249    2.38657014973458
H         3.60239141227189    2.29060299767155    2.35772538315111
C         4.93272163211075    0.92036393503705    6.43320605748791
H         5.44343549062420    0.35128839079551    5.65512109961814
H         4.92561197247334    0.32396504197047    7.34044977374960
H         5.50510186662250    1.82868172994396    6.61996699510700
C         1.26959614910658    3.12379943911050    1.45786233983446
H         1.23793933284591    2.23032627647531    2.08981810849439
C         2.05705306107190    5.36845066054629    1.09040964706476
H         2.64782826635889    6.21905341293584    1.40334108265830
C         0.51153583491996    3.20427628758181    0.30690647535983
H        -0.10012559813348    2.36664523410138    0.00765484482965
C         1.28446153095354    5.44507109265311   -0.05739996036527
H         1.28463560693116    6.35372160590842   -0.64070135773408
C         0.52021711081851    4.36381878175716   -0.45538820327568
H        -0.07870121187699    4.42574522133369   -1.35105303248462

