49
CSD_code = KITSUB | q = 0 | S = 0 | Stoichiometry = C10H27Cl3N3O2PSi2Ti | MND = 6
Ti        3.41926522388017    7.68703672343670    4.69280021774723
Cl        2.62954719787548    5.71622669460743    5.19707333875213
Cl        5.32896744514642    7.42941112760696    5.81301865355761
Cl        4.33050976562646    6.99322785292705    2.77673087653593
P         1.24953168184036    8.99757673484606    5.21883582721746
Si        2.64102872733983    8.79550445516111    7.86042999062939
Si        0.99058407440728    8.32294127357592    2.31220434132029
N         2.52400133792678    8.66754410921891    6.13587607115606
N         1.81410620176729    8.41652449815391    3.83364386074024
O        -0.16077527686867    8.43819632735359    5.69811759497784
C        -0.34608345225926    7.03290982529553    5.80719716057261
H        -1.40136063788028    6.88282063694066    6.03706054206857
H         0.27439495724670    6.62122768362407    6.60724568399760
H        -0.08835332005342    6.53184910220429    4.86997199618957
O         0.80752542721622   10.53050591372539    5.20287586925229
C         1.80899377487942   11.48013887165912    4.86939132795198
H         1.36226733233270   12.46349738258551    5.01731012748482
H         2.11971220043658   11.35761656477256    3.82860718756716
H         2.68305412365231   11.35720433834860    5.51517018432247
N         4.36326253406940    9.80147030337477    4.11198342207120
C         5.43543597475046    9.59041730233858    3.75254566127714
C         6.76316829169301    9.32716785519626    3.30881676747868
H         7.22812319011023   10.23461672427535    2.92634756709264
H         6.71285595705578    8.56598521429684    2.52767839330652
H         7.33434304098650    8.93064725016455    4.14983743949606
C         1.02123885172539    9.52469729471124    8.55942935435418
H         0.65066017144371   10.32287868972213    7.92354429218391
H         1.17216831595603    9.92792255512970    9.55501019093594
H         0.23997215836993    8.77370286597460    8.62380876747457
C         4.11779338535433    9.96497506406649    8.20108342466935
H         4.98114220201444    9.65771067234127    7.61538529318006
H         4.39701283319355    9.92950948787488    9.24834163045932
H         3.89434178628488   10.99998649861071    7.95432319147118
C         2.95910655834363    7.04162163344536    8.55103950628825
H         3.82461120421893    6.59898244935015    8.06155304274230
H         2.11819809004108    6.36993475907041    8.39012904363198
H         3.16160132647719    7.07153260285720    9.61650972255601
C        -0.69532741396771    9.20783092776343    2.43705860093190
H        -1.30406635260286    8.78988160904546    3.23250492974545
H        -1.25069132218108    9.12115688285400    1.50931214430976
H        -0.56821256513029   10.26446162051320    2.65106299671236
C         2.11068996098365    9.20165844273605    1.03395942110838
H         3.08891303690365    8.72893864460263    1.00821666456951
H         2.25582078472682   10.25446139297416    1.26464644943064
H         1.68185913916000    9.13575981274330    0.03995098384094
C         0.76447943171120    6.46484703316526    1.90859072783250
H         1.59436607096925    5.88612874447475    2.31403669116368
H         0.74543950918361    6.30360084561356    0.83608349649000
H        -0.15712293627210    6.05615470477897    2.31644933122890

