78
CSD_code = KITVEO | q = 0 | S = 0 | Stoichiometry = C34H38FeNO3P | MND = 8
Fe        1.77925104617688    0.09135815967946    1.08876842211889
P         2.69863078865798    0.94821179407180    2.86137693754153
O         4.33594685639241    0.36148553210528    0.53972561053110
O         1.26727367957717   -2.52947599342853    2.17588777158244
O         1.79918831455427    1.07409595931510    4.20501509401242
N         3.02758271180557   -3.79573497689783   -1.23282223754895
C         3.47006769998025   -0.48899464653540    0.48432311967537
C         3.74409006289612   -1.82751455063305   -0.08005002199588
C         5.01505150151550   -2.38281085798531    0.08077225494154
C         5.26136879526780   -3.65255497257621   -0.40831031013438
C         4.22987040013591   -4.31928973184927   -1.05339943549060
C         2.79129397915728   -2.59049232676501   -0.75509836829114
C         1.48260801813308   -1.47400763798219    1.75928791552229
C        -0.28579280488111    0.75618764347963    0.41776727847729
C         0.46815144268151    1.87794394168889    0.77831490777459
C         1.59711728870696    1.95476631375218   -0.09471611006305
C         1.52187857500345    0.88395216223015   -0.99463854118654
C         0.39707515436680    0.09782140686566   -0.63715251263902
C         4.23455144045553    0.20972493020458    3.55018014046160
C         4.50014779601913   -1.13541786557292    3.33734700702798
C         5.60932290866254   -1.72910697278294    3.91429636168686
C         6.45342176531190   -0.98118509366585    4.71801984848090
C         6.18245462418660    0.35769070004143    4.94902660680088
C         5.07568912295054    0.95225087615986    4.37038377765127
C         3.14189732986936    2.71002180462833    2.75268218801799
C         2.33776131847538    3.68591928757463    3.32949409595541
C         2.65435416540154    5.02468658270561    3.17930388206202
C         3.76681578653387    5.39833024398787    2.44420481297490
C         4.56476496354768    4.42814036602973    1.85824283786539
C         4.25383769438908    3.08907334854912    2.00679100747802
C         1.08471686733084   -0.06096554011465    4.70184413115788
C         1.03359969742169    0.01174402044588    6.23308832779358
C         0.18653520123217   -1.15567576987964    6.74565954025406
C        -1.21929360861912   -1.12720101394935    6.15340153979744
C        -1.16154716388264   -1.20646153262480    4.62858946849484
C        -0.31900943738899   -0.04680337216053    4.10631327150062
C        -2.55660931691547   -1.17873115220807    4.01246641578330
C         2.44338849507979    0.07547449938258    6.85544242898777
C         2.38739205202968    0.60255072150207    8.28866476811709
C         3.18661225809134   -1.25821604777444    6.82398659595867
H         5.77791331820319   -1.81269787326006    0.59188910657622
H         6.23022283615213   -4.11430288588480   -0.29438940673580
H         4.36723376383746   -5.31682101915458   -1.44977823973129
H         1.79834377113947   -2.19742630381281   -0.92128639382440
H        -1.23932468783099    0.46601288673019    0.82534806649083
H         0.19099981857263    2.62935457150478    1.50018676791028
H         2.29024600731938    2.77738300151233   -0.14366521997175
H         2.17753818028027    0.70555286941990   -1.83073102478563
H         0.00222924989740   -0.72987931480046   -1.20476788264116
H         3.83515252606953   -1.71059332174307    2.70683207749810
H         5.81273744320660   -2.77546456597145    3.73843359277731
H         7.32131932358986   -1.44225522554839    5.16621978744801
H         6.83720996254419    0.94039371749678    5.58079659799809
H         4.86186552588042    1.99671771642651    4.55040378577679
H         1.47258153981372    3.39165317759991    3.90395185392483
H         2.02885766538017    5.77946361023879    3.63417164665077
H         4.00995117626698    6.44417330045173    2.32520470262205
H         5.43050442798556    4.71778809593096    1.28057127925213
H         4.86072104818057    2.32820375721036    1.54139480065044
H         1.59924256077457   -0.98007193211246    4.39539038609018
H         0.52631594774989    0.94981010703245    6.48730007718276
H         0.12480582978330   -1.11114162298218    7.83363620170254
H         0.66287378215925   -2.09699950792214    6.46905316316332
H        -1.79775699591220   -1.96594986825792    6.54593939686954
H        -1.72565404346909   -0.20512517428229    6.44858292978221
H        -0.67130118121692   -2.14327295626151    4.34335828991085
H        -0.79495134493514    0.90319264939513    4.35960100854829
H        -0.22251507476564   -0.10085999556081    3.01826708405478
H        -3.15597262707173   -2.00504534503642    4.38703586243647
H        -3.06427348179003   -0.24792869553981    4.25723045316872
H        -2.49423922436142   -1.26424920465263    2.93030481019092
H         3.01674588623949    0.79326467029593    6.25901026074441
H         1.89819348274602    1.57321961357091    8.32556472063686
H         3.39444068995692    0.71263084006294    8.68432817309513
H         1.84430286592049   -0.08256427012538    8.93539088960075
H         3.18176589264379   -1.69011584240854    5.82656396840194
H         4.22437818642328   -1.10553442217986    7.11248704560525
H         2.74323848232320   -1.96810547639802    7.51778855179254

