101
CSD_code = KITXIU | q = 0 | S = 0 | Stoichiometry = C48H40Cl2MoN4O2P4 | MND = 6
Mo        7.94978349332398    5.47962986035302   -0.03956853395842
Cl        8.69877629990415    4.19971696146795    1.80245074941746
O         7.96879010492793    3.61135777425060   -0.93031185481963
P         8.21235448774690    3.43756851262188   -2.41765327950473
N         9.16854567080778    4.54327940755302   -3.14210724765890
P        10.24573114564366    5.23472250321675   -2.14250516847965
N         9.52031625987662    5.81659241566163   -0.82789551862540
O         6.15248233718864    4.74678066190336    0.51278173021913
P         5.45506405484458    4.88582531942557    1.85331378523398
N         5.61835158007074    6.32593574263041    2.57924011919835
P         6.93990110775543    7.23572565133242    2.34240510031093
N         7.71219246786112    6.93253618474056    0.96939623597022
Cl        6.72439576036089    6.12323744727656   -1.91795585815513
C         9.02564004769077    1.82083177624267   -2.58162081533940
C         9.48683655222736    1.16318719467117   -1.45062003399534
C        10.23060420176587    0.00447010651480   -1.58644254591589
C        10.51254759199982   -0.49273848398879   -2.84795456759204
C        10.04913696194421    0.16419946442507   -3.97764198330525
C         9.30836022469069    1.32384742454961   -3.84561712954183
C         6.63617054831008    3.38553445219901   -3.29790647608210
C         6.52742874511148    3.81720535951125   -4.61071120013123
C         5.29564313946609    3.77837908238780   -5.23877777452989
C         4.18131230083284    3.31743343986567   -4.55559339885662
C         4.29200976036497    2.89058591908119   -3.24159952008905
C         5.52293223574150    2.91809922202647   -2.61264434032014
C        11.00459480147007    6.56441387421331   -3.09448413847865
C        12.37025970297768    6.80330401209013   -3.10121286885170
C        12.86960066431556    7.87471559061129   -3.82181901412497
C        12.00652730689296    8.70410088094920   -4.51983214845082
C        10.63983688433688    8.47032764786771   -4.49867385200142
C        10.13476645401547    7.40029104413996   -3.78311412616376
C        11.48609282797285    4.01036698615857   -1.63812116496339
C        11.66767471403044    3.68602141418677   -0.30127672090070
C        12.50315058285946    2.63372803558520    0.03450601074467
C        13.14649037650672    1.91229731695669   -0.95768264280131
C        12.96182105652480    2.23837966632152   -2.29305081014471
C        12.12791627926524    3.28539563282572   -2.63556297209381
C         6.40022870038422    8.95716163361057    2.41911112961284
C         7.35330610824546    9.94497936643811    2.20987948006146
C         6.97868692235514   11.27493356900499    2.25329577486606
C         5.65778857956817   11.61211792375661    2.50824217920848
C         4.70983630218334   10.62305876952231    2.71545853487681
C         5.07905019470417    9.28971686413177    2.67061794742522
C         8.14479572199056    7.02639201094617    3.68546865981342
C         7.67085307467844    7.02026142851034    4.99062118167499
C         8.55352464603333    6.83864183896186    6.03918336620309
C         9.90437572777096    6.66618773602399    5.77969457032100
C        10.37551209216037    6.68542714047141    4.47673173864093
C         9.49785575279340    6.86987002276753    3.42256786464501
C         5.94268637532916    3.49713652638902    2.91920043628499
C         6.26996313543044    3.68338750344216    4.25263926718435
C         6.63503266767327    2.59550564355220    5.02525228977368
C         6.66970812446286    1.32899447235626    4.46557080885257
C         6.33696529964194    1.14327745289520    3.13259120783345
C         5.96820443006284    2.22682186806231    2.35822646608862
C         3.68820846805298    4.67689802349067    1.51967069420877
C         2.80038114576332    4.37942333679698    2.54278951042736
C         1.45142913092772    4.25334309151837    2.26361373034118
C         0.99386339963613    4.42276921004100    0.96578561525854
C         1.88179490670616    4.72307688518565   -0.05472891931857
C         3.23152950075189    4.85345123401185    0.22107277599014
H         9.26232177937342    1.57028423363297   -0.47326598269799
H        10.59496456770628   -0.50775994615762   -0.70794929437702
H        11.09724807722715   -1.39512675350962   -2.95300578176709
H        10.27191352751947   -0.22735593658393   -4.95965700770700
H         8.94847124593283    1.85983795354440   -4.71244838766054
H         7.40512230772232    4.20093896980286   -5.10868598291434
H         5.19922456349081    4.11758628322167   -6.25986804965004
H         3.21916989731500    3.29834293438312   -5.04690646555230
H         3.41880126403866    2.54256651143549   -2.70808164996873
H         5.63226569453283    2.60048237685280   -1.58323494718380
H        13.03218780842008    6.14923548966931   -2.54981765019275
H        13.93311313141383    8.06456146650745   -3.83836673676608
H        12.40153989428003    9.53907057543068   -5.08021438717198
H         9.97146864115635    9.12478635992290   -5.03863462146690
H         9.07377063801628    7.19051844849724   -3.74360138441414
H        11.14683489040881    4.25263946789615    0.46141463264900
H        12.64329645873623    2.37298911876269    1.07308821724523
H        13.79212979802442    1.08791453165626   -0.69190495307377
H        13.46106320905176    1.66954525010029   -3.06377191842949
H        11.95265640002945    3.54854519103128   -3.67005359251599
H         8.37506398312322    9.65262983057618    2.00720668993203
H         7.71205739926422   12.05059903051803    2.08779575560578
H         5.36635324788911   12.65184046493992    2.54229995591568
H         3.68203295129540   10.89294109394831    2.91037491110403
H         4.36091000506103    8.49713032160291    2.82220695443925
H         6.61169743620564    7.15919024821968    5.16382657618220
H         8.19199655362282    6.82996947583302    7.05740592856963
H        10.59287751777465    6.51724896143209    6.59878550995277
H        11.42933716517621    6.55264504329900    4.28190640221110
H         9.84191573342401    6.88442172326426    2.39483396055478
H         6.25067545078434    4.68174142033446    4.66497943619492
H         6.89965414252357    2.73641219593530    6.06303530729548
H         6.96218150845452    0.48178301484482    5.06872918237597
H         6.37033619217376    0.15408899675942    2.69924872969071
H         5.71407095156704    2.10638013913428    1.31277505386131
H         3.17641974165436    4.24867387124189    3.54783011734521
H         0.75449383078813    4.02130290755972    3.05583328440583
H        -0.05995564389078    4.32087360917028    0.75050207900387
H         1.52241646911704    4.85819009786246   -1.06454154607832
H         3.94118243019012    5.09041597368255   -0.56186068124012

