58
CSD_code = KITXUG | q = 0 | S = 0 | Stoichiometry = C26H11ClF15OsPS3 | MND = 5
Os        2.02776931619957   -2.59921711309110    4.02673621201832
Cl       -0.30437540548512   -2.88232200961693    3.80417746194582
P         4.34529059735635   -2.33486668926720    4.27285141575691
C         5.18223696290275   -1.21157567901015    3.11480963752968
C         4.45559941458184   -0.55345012703908    2.12919797968907
C         5.09375228551308    0.30405043052280    1.25053242610729
C         6.45940430464594    0.50902438097153    1.34986289005248
C         7.18841428815717   -0.14474476366813    2.33085441247249
C         6.55540657596867   -1.00197052489730    3.21095078117409
C         4.83259451245525   -1.71571575295921    5.91814209432327
C         5.27204827845038   -3.89904415403304    4.12261229597062
S         1.86875483767447   -0.37727569610466    4.44758449134258
C         0.17938121840388   -0.06006324612051    4.80575041682124
C        -0.59757470055892    0.80432776575876    4.04001955688337
F        -0.06120712880524    1.42599822690995    2.99208443144108
C        -1.93391262291596    1.02532164912948    4.36089939046933
F        -2.66935800847655    1.85897096324594    3.62590179160788
C        -2.50473424791558    0.37751403931098    5.45278871654969
F        -3.78375553203089    0.58737041850216    5.75765523751743
C        -1.73622983472010   -0.48660345233184    6.23332971016707
F        -2.28063853262001   -1.10772902212816    7.27885616157886
C        -0.40483057298530   -0.68492348404449    5.90863691201406
F         0.35295508941381   -1.52216159832989    6.62748554032447
S         2.15115370237340   -3.96372065530334    5.82448201036120
C         0.65177507774349   -4.87194831595686    5.89211771332010
C        -0.19559538410981   -4.82745325036073    6.99562175549868
F         0.12779902849390   -4.08644589179027    8.05267920943805
C        -1.37938809636698   -5.55981829697304    7.00747297420168
F        -2.18252460312991   -5.51485584880318    8.06970042832847
C        -1.72407360053066   -6.34482746321069    5.91089631180218
F        -2.85726433276059   -7.04364889500919    5.92190932302021
C        -0.87752480591255   -6.40953401029363    4.80388536630458
F        -1.20188577616999   -7.16643346491396    3.75656721200487
C         0.30222947208176   -5.68420359181715    4.81235129219538
F         1.12784466306303   -5.71916502440016    3.75932568589232
S         2.49350766956794   -3.54424898284351    2.01780494341871
C         0.99732070430119   -3.48791265163099    1.10156284688730
C         0.42933699988631   -4.61879792452507    0.52236626620858
F         1.02390822349772   -5.80227113157982    0.65354329381760
C        -0.75743322273509   -4.52290196973466   -0.19952113559475
F        -1.29162044773062   -5.61053799172258   -0.75380206858653
C        -1.38695880746245   -3.29040930264156   -0.34742860203526
F        -2.52208504213501   -3.20003167371444   -1.03770538903331
C        -0.82492725224355   -2.14628727537350    0.22033717402797
F        -1.42211412734715   -0.96416727497336    0.07709391965051
C         0.36022971584572   -2.25868537049437    0.92608312887711
F         0.91691478081965   -1.17988748037116    1.50107723374150
H         3.38793143964569   -0.70925794087480    2.05479658591303
H         4.52259562791182    0.81372107444674    0.48983794691177
H         6.95771461651124    1.17838013575478    0.66516162550951
H         8.25337328945629    0.01536610819599    2.41002836982423
H         7.13267989404601   -1.50584223997510    3.97296928795133
H         4.42514841515248   -0.71483875078638    6.05353195867055
H         5.91771078277419   -1.68495065291437    6.00406388211979
H         4.41990695384093   -2.37762274472620    6.67872080399118
H         5.10419680331980   -4.31875256156251    3.13167934227537
H         4.90436292466967   -4.59560050669873    4.87514497837077
H         6.33626362175482   -3.72222274139568    4.27102435489405

