121
CSD_code = KITZET | q = 0 | S = 0 | Stoichiometry = C36H72MoN4S8 | MND = 8
C         3.63966865586777    6.22115360516281   12.83122738853025
H         4.30515255416550    6.79555105437040   13.47893794163178
H         2.96910606858425    5.62395090074019   13.45747628042722
C         2.80048875808282    7.16286637424732   11.96233575440838
H         3.45685060453218    7.77996214366493   11.34622750737953
H         2.17992851782183    6.56152569167270   11.29544452387229
C         1.90782206255977    8.06002625812681   12.81400114442359
H         2.52777423593010    8.64657176342110   13.49643867048626
H         1.24518124493027    7.43701656092540   13.41755939973489
C         1.07396349599944    8.99728316335840   11.95001310638923
H         1.71683827912287    9.63430676564161   11.34562392259143
H         0.44613983525055    9.63246229731610   12.57023164216658
H         0.43244885898707    8.42343135944843   11.28617601846270
C         5.82692080763195    5.63750311130776   11.75158747299083
H         6.37772865551978    4.69597731652802   11.66387060552643
H         6.23210434785017    6.20287539840238   12.59403245500570
C         5.98909291186694    6.42768582925254   10.45018521909366
H         5.44145132582680    5.91030048391293    9.65992394938633
H         5.56242348662442    7.42579433634943   10.57058537361387
C         7.45658466073644    6.54629634365416   10.04956244431059
H         7.86772044461109    5.54467643419407    9.91264519972427
H         8.01553111626596    7.03113178062723   10.85382388298119
C         7.62239763379627    7.34175711388569    8.76072040443354
H         7.07177616614999    6.86780192371313    7.95155276926049
H         8.67076946157136    7.39508591520975    8.47770727255291
H         7.24909126367398    8.35662951637702    8.88346827251013
C         0.55461429373694   -1.61720213725278   13.19392353188061
H        -0.19475564906758   -0.94419524083156   12.77025590479031
H         0.36445699507936   -1.72125016431709   14.26686885246899
C         0.44893858087537   -2.98614129014117   12.51472516812291
H        -0.55694180814685   -3.37074083350645   12.69566422140968
H         1.15564140586685   -3.68054835140165   12.97419502973956
C         0.70374459592684   -2.91769607365302   11.01100404235943
H         1.70678458713836   -2.52503818500008   10.83104168497348
H        -0.00733642574417   -2.22469459550654   10.55737457578310
C         0.57492265012844   -4.28824891668574   10.35933777997938
H         1.29413792801467   -4.98471263187242   10.78615755760667
H         0.75654424490628   -4.21997018268579    9.28979475491927
H        -0.42415570841854   -4.69117874850531   10.51199228677095
C         2.96854081157299   -1.44156001894454   13.82107792918534
H         2.56654743722636   -1.90330206896483   14.72406115230339
H         3.55425756184922   -0.55965201602707   14.10245160074835
C         3.88663770330022   -2.41761966146732   13.07626333064792
H         4.07803340294622   -2.01286042963111   12.08095001046502
H         3.39017798710814   -3.38306377060131   12.96324417029784
C         5.22453172660173   -2.61098681650293   13.78708209512825
H         5.86043570781840   -3.23804551256376   13.15833651898978
H         5.71541168951451   -1.64142629299593   13.88873875008577
C         5.08639585574356   -3.26156484597393   15.15870508781401
H         4.55257168929926   -2.61274185175960   15.84832752482900
H         6.06883954239517   -3.46353730605705   15.57883939090314
H         4.54812468521729   -4.20431983727445   15.08262225443937
C         3.87946621952487    4.25593779264088   11.46334675301907
C         2.03341589016924   -0.05064722523816   12.09367338722901
Mo        2.50824877496947    2.04349780808976    9.89981770473167
N         4.44780044857268    5.31351269442210   12.04562630962925
N         1.84712328355682   -0.99323073664536   13.02248121639980
S         2.27474483839216    3.81067792692756   11.75268686870549
S         4.72693173013072    3.23759568035594   10.40506929854644
S         3.54055995234277    0.66455272934800   11.81560540368791
S         4.21503426257926    0.56911389507172    8.67397331928149
C         1.37430279054113    6.21927519556679    6.96380399329082
H         0.70842684395458    6.79094607988234    6.31407325496083
H         2.04636452003855    5.62167331343804    6.33955493592513
C         2.21130889098364    7.16458994085708    7.83081086330334
H         1.55340502248117    7.78326305989108    8.44366836738332
H         2.83112707754317    6.56594165898915    8.50079640030052
C         3.10478067346989    8.05955003008288    6.97766490394392
H         2.48564472937190    8.64325796200007    6.29205981694027
H         3.76892381796534    7.43489378757445    6.37748697197372
C         3.93653572700664    9.00037947890497    7.83977534863714
H         3.29215432409048    9.63927151755395    8.44056344489300
H         4.56524699619379    9.63360168728238    7.21845180905795
H         4.57703426831835    8.42927734890062    8.50697174598117
C        -0.81277417857404    5.63466223482834    8.04308209991688
H        -1.36225404479556    4.69246589848330    8.13195988581576
H        -1.21796999931824    6.19790893974377    7.19920919502830
C        -0.97741964611020    6.42706780375874    9.34283837910817
H        -0.43043189025075    5.91152852257310   10.13476037207214
H        -0.55140450951954    7.42531469043856    9.22123473587759
C        -2.44562917550689    6.54517477785466    9.74106070727193
H        -2.85616932732261    5.54344924000892    9.87898557188236
H        -3.00383565247162    7.02830651228019    8.93524463170335
C        -2.61393188983965    7.34244331514720   11.02847704479217
H        -2.06445154907460    6.87008117750083   11.83936224478692
H        -3.66281167386507    7.39558310497821   11.30961422241389
H        -2.24105585350986    8.35736135776949   10.90483576735883
C         4.45874116539005   -1.61498642972083    6.60061819984400
H         5.20859566153667   -0.94276044092626    7.02468887890756
H         4.64865817406858   -1.71839735087300    5.52754584246664
C         4.56370618131661   -2.98440732436224    7.27896481224822
H         5.56923128347907   -3.36961329570013    7.09740929561127
H         3.85635764967207   -3.67804769958538    6.81934890370160
C         4.30971243316294   -2.91700932395525    8.78284211394315
H         3.30700631139549   -2.52382873874934    8.96342633732844
H         5.02138447971386   -2.22470129270129    9.23659008341896
C         4.43793004140010   -4.28799373900584    9.43371687919510
H         3.71808115761286   -4.98368082729935    9.00672183789836
H         4.25685608552000   -4.22034104856408   10.50340347128954
H         5.43667398719349   -4.69143769655343    9.28026787394948
C         2.04476050850400   -1.43753663113211    5.97428071536425
H         2.44625437337650   -1.89909376224103    5.07096025634306
H         1.45964691687930   -0.55505285718496    5.69347625026488
C         1.12635873491915   -2.41327232771747    6.71921097232587
H         0.93675414125782   -2.00962432637308    7.71533073742933
H         1.62155755979962   -3.37959563791486    6.83025483475314
C        -0.21263626332188   -2.60365981496655    6.00969311906008
H        -0.84851942542374   -3.23082110405634    6.63833524652861
H        -0.70236570054060   -1.63328505684244    5.91026204911868
C        -0.07742384155761   -3.25228677067887    4.63685895554441
H         0.45667188018394   -2.60322397099217    3.94768380688105
H        -1.06069689420034   -3.45198667088397    4.21755445819185
H         0.45940764581012   -4.19602580298363    4.71079722125309
C         1.13643143783061    4.25621905772313    8.33546622554857
C         2.98127246275043   -0.04835641063168    7.70247451976837
N         0.56712123231208    5.31218280600438    7.75102138182186
N         3.16663239157896   -0.99037716932530    6.77286869836160
S         2.74203801622694    3.81250451101561    8.04854977319925
S         0.28891107247281    3.23720429984111    9.39302920066924
S         1.47510488469682    0.66886149670061    7.98106516519854
S         0.80078561275588    0.56802644347388   11.12146105220837

