17
CSD_code = KIVBIA | q = 0 | S = 0 | Stoichiometry = C2H9Cl2NOPtS | MND = 4
Pt        1.45295248324998    1.11091083591022    5.01076311374919
Cl        3.32789631896832    2.41533710501052    5.14152433925826
Cl       -0.46613259745048   -0.13435617365316    4.96333190648774
S         1.94486223659909    0.52107113306826    2.92935772368196
O         2.72260211646242   -0.69156140751036    2.83566598445869
N         1.01549070108730    1.60115737543776    7.00178950906573
C         2.80461947880908    1.80783151070183    1.97947061643187
C         0.48436001045763    0.33125656010343    1.86690912594420
H         0.02438103820166    1.42193149373681    7.17822451467767
H         1.25056248575721    2.57788564643172    7.18673303929503
H         1.58248612300677    1.00397134908843    7.60782582590180
H         2.97995903751307    1.43353025408694    0.97745230574099
H         3.74737713699926    2.01592850372199    2.47410391578797
H         2.18479029652945    2.69719868647125    1.97407934272187
H        -0.12232216739198   -0.47170373715529    2.27197014209205
H         0.81670403688057    0.08278435430033    0.86556803609460
H        -0.07138873567908    1.26202651024899    1.88633055860994

