25
CSD_code = KIVDIE | q = 0 | S = 0 | Stoichiometry = C10H8Cl2CrN2O2 | MND = 6
Cr        2.17054999855019    2.82082623273151    2.28050045069704
Cl        0.14586680836574    3.21150749968163    3.05331204145366
Cl        4.24521598829824    3.50003468394504    1.98693941153621
O         2.47202638583866    1.51248705698058    3.07985187452582
O         1.79790327156244    2.57118510150462    0.78362879750918
N         1.91772441184221    5.04674129477158    1.89741712859568
N         2.58144953098422    3.99362274764629    4.18261738404009
C         1.57695077982319    5.47644240220244    0.69480092958678
H         1.43208111778799    4.70853272523324   -0.05370340893235
C         1.41430963810495    6.82214871653353    0.40443785624318
H         1.13697950547361    7.13116675736317   -0.59011997724009
C         1.61632727966532    7.74510858703429    1.41746070086516
H         1.49916874500404    8.80239301233186    1.23350350619981
C         1.97269583526848    7.29143611203210    2.67582307445233
H         2.13340905918971    7.99392231871144    3.47656751118479
C         2.11850305282402    5.92174727456361    2.88737806803637
C         2.49482469001573    5.32719661093798    4.17724972824673
C         2.75048685769958    6.06813076685062    5.32953553877184
H         2.68159039502849    7.14312208779288    5.32108390327937
C         3.09744749540714    5.40531832838891    6.49422612167630
H         3.30016761967209    5.96171097699851    7.39679709898685
C         3.17919607050724    4.02257341377520    6.47963062213807
H         3.44450472622596    3.46583674316414    7.36344793019735
C         2.91113116100535    3.35746688882602    5.29331397238091
H         2.95948957585537    2.27894165999884    5.21919973556893

