38
CSD_code = KIVFUQ | q = 0 | S = 0 | Stoichiometry = C7H18Cl7N2PSi2Ti | MND = 5
Ti        1.08825335370958   -0.10490299009495    5.93653630938055
Cl        2.30209771214767   -1.88771330792609    5.66046248818303
Cl        0.05431112015670   -0.09151866724941    4.05674479585680
Cl        2.75275190442828    1.20169272061512    5.43618360449999
N        -0.22679456056847   -1.07187213943599    7.14862138394471
Si       -0.82485231541454   -2.72195786591405    7.20442079117140
C         0.48856225428879   -3.82626594611146    8.04019199654348
H         0.27590465054703   -4.87047158121480    7.83661548295567
H         0.51151220534096   -3.70350846145981    9.11965481730614
H         1.48193319520378   -3.61110454588109    7.65350079153707
C        -2.45825479482103   -2.74834343629303    8.18907208096081
H        -2.87772383121945   -3.74810817974177    8.17352612625582
H        -3.19861533453241   -2.07452041609350    7.76745464357585
H        -2.31002855157660   -2.47242294507281    9.22914128356936
C        -1.08979440715106   -3.13263834120774    5.36345616792263
H        -1.76271843718798   -2.42125617011569    4.88707854519243
H        -1.50726809507119   -4.12579794653865    5.23633860278093
H        -0.14321486637428   -3.09755411519675    4.82585733040661
N         0.12731420848015    1.35701661115837    6.97156769506181
Si        0.02280563284060    3.09938934092690    6.77982528961793
C         1.61201430252540    3.89274177324263    7.47843707045927
H         1.62041422123571    3.92389700565255    8.56461714112017
H         1.70093197010736    4.91412457648375    7.12363635517866
H         2.49543572214875    3.35137401684163    7.14812442255112
C        -0.15100698587933    3.30288276208278    4.89400418933055
H        -0.27102540048686    4.34532805821788    4.61863231541834
H        -1.00793991656042    2.75226994915790    4.50876855635770
H         0.73560001704761    2.92410994641290    4.38724098308740
C        -1.51639530682766    3.72710266274907    7.71527759131199
H        -1.63594926919764    4.79180491036882    7.54844907334437
H        -1.43175491320581    3.57184287389348    8.78700184065346
H        -2.42541569974147    3.23729760420440    7.37803084086702
P        -0.41766836300982    0.26258580669262    7.97122984885877
Cl       -2.09949927800395    0.57593229068339    8.90733589057326
C         0.84579157610552    0.18148251822128    9.38475412734335
Cl        2.34041776405122   -0.10285277940180    8.47285336468114
Cl        0.52752705342406   -1.15564196122073   10.46688365945849
Cl        0.94314146303857    1.69337636856655   10.25947250268091

