28
CSD_code = KIVJUW | q = 0 | S = 0 | Stoichiometry = C10H12N2O3Pt | MND = 4
C         9.24496368241875    7.08225739905552   -1.35164261082964
C         8.77842880847680    5.64634103769049   -1.25040448813547
H         9.45821341168077    5.08638002961499   -0.61126918504022
H         8.74717195958741    5.18552366468797   -2.23755910626080
H         7.79320244697490    5.61683456796292   -0.78537537515028
C         8.95023536812775    7.01600563319055    1.54100158134952
C        10.27895890979869    6.55167861223886    2.11869583620347
H        10.83285716698954    5.99494550414095    1.36556873075542
H        10.12023715263924    5.92556417842060    2.99641958844198
H        10.87390748705475    7.42505627022442    2.39071923248428
C         9.17210625120400   11.22264405451766   -0.50931914620618
H         9.53531138169930   12.13868864219273   -0.96544406939895
C         8.64571694777318   11.24782839266473    0.83573043389277
C         8.35209083377221   12.44520458760794    1.49218526571627
H         8.52462130026554   13.38517483027545    0.99147437459561
C         7.83487797945231   12.39921979119745    2.77224908255831
H         7.59777346615053   13.31067709304174    3.29996366703458
C         7.62049910874850   11.16131633099596    3.36526894624851
H         7.20978256622064   11.08323138200929    4.35864332534357
C         7.95288299695750   10.01765521610869    2.65700226801229
H         7.80586654819427    9.03431257583748    3.08378525393887
N         9.19701116806540   10.10292958419449   -1.13870536362667
N         8.45898699602497   10.05641344161840    1.43363539204740
O         9.75018264790529   10.09221992088378   -2.37111063313485
H         9.77595419399914    9.11201408687687   -2.62586355163503
O         9.65346520684444    7.49216438046503   -2.43747614393990
O         7.89697939211084    6.67853991309869    2.04116185315910
Pt        8.96831462084373    8.38967887916632    0.12076484156865

