42
CSD_code = KIVKIL | q = 0 | S = 0 | Stoichiometry = C17H19N3O2Pt | MND = 4
C         0.05358968558445    6.35123504559773    4.16330632423025
H        -0.79335924125806    6.40593040320865    4.84133631517804
C         1.37604609194905    6.62027115424213    4.63954707043343
C         1.61102089778761    7.08908938750238    5.93965066275715
H         0.77238769617109    7.25191392474897    6.59854864975260
C         2.90137666803484    7.33873934479403    6.34942893819223
H         3.10159652074736    7.70113641544597    7.34663963368482
C         3.94310861166245    7.11999958569754    5.45313933542250
H         4.96692127253690    7.30919488841324    5.73107103265635
C         3.64327548354745    6.64810763305832    4.18901893490174
H         4.43197014245399    6.46940787727975    3.47085440333364
C         3.59855067383294    5.51193479644704    1.23857982832509
C         4.15976596563040    4.10350151833703    1.40923543235106
H         5.24854340106680    4.10949459533153    1.36884367116439
H         3.78026436989071    3.48708798553181    0.59589558816414
H         3.81831981459372    3.66939347583583    2.34985723283853
C         0.93836531632533    5.36551605596215    0.13009740642236
C         1.63493133034935    5.35817841864677   -1.20170101778646
H         1.07177317814812    5.94347738997676   -1.93028968580263
H         1.69424530447452    4.33368868262409   -1.57393159473046
H         2.64129996528284    5.75916671164338   -1.12874783514259
C        -1.16153950677925    4.84037290430098   -1.03350780960481
H        -0.70143681177160    4.04192000419791   -1.62512740712948
H        -1.22371575700133    5.73630397749850   -1.66603813165876
C        -2.54081819969448    4.43445622291953   -0.59042892929523
C        -3.00574087665053    3.14422387253715   -0.79931729320070
H        -2.37713312522074    2.42134583555475   -1.29974536014643
C        -4.26942003862425    2.77726023269505   -0.36998862096917
H        -4.62207353725367    1.77052563670260   -0.53708482727664
C        -5.07559471755097    3.69676513378070    0.27749208564568
H        -6.05981182141204    3.40895217800404    0.61624447436586
C        -4.61613655408857    4.98542461749824    0.49170284668734
H        -5.24059847183338    5.70469935228878    0.99945836156276
C        -3.35618567839691    5.35395019899697    0.05851658188392
H        -2.99963298809130    6.35734192396311    0.23205134050157
N        -0.10323049547265    6.04265471307122    2.91125154779574
N         2.40175688546417    6.39393293872844    3.78674960405055
N        -0.33398293750813    5.12695482466330    0.12428108068848
H        -0.88336045329139    5.28344937189129    1.04189546338514
O        -1.27114652332941    5.73822536132667    2.45865700482470
O         4.29490171784240    6.40974771290884    0.81246267182779
Pt        1.75460674181995    5.80002769613793    1.90429498970706

