55
CSD_code = KIVKOQ | q = 1 | S = 0 | Stoichiometry = C18H22CoN8S6(1+) | MND = 6
Co        6.50088645580112    3.09217719305815    4.20899721777312
S         4.56031283359004    1.86376527409978    4.31288221658230
S         2.22663620316746    2.33984354477739    2.58942721514598
S         9.66000501537806    3.74747116229137    5.82081204076581
S         7.40754691279087    1.61109608755919    2.70512490012030
S         9.03744417251486   -0.75911755645618    3.59551798092680
S         4.73470244269109    6.21382182496313    4.56371840113415
N         7.99284310146100    4.37395313581124    3.83233197528205
N         5.66825985820645    3.99541692129740    2.82425290007799
N         4.45862913034476    3.70864395989804    2.39873548348762
N         5.88672371287134    4.14002213939951    5.79263993187602
N         7.26620744698398    2.00363551580985    5.49607200017593
N         7.95310244643515    0.92763533593878    5.21128319841310
C         9.19157802983941    4.60995333103398    4.38664259507174
C        11.32548092282988    4.41008122661229    6.08406707800408
H        11.71677911258058    3.89188013468984    6.95342084584788
H        11.26287565010118    5.47706152885043    6.26656140781471
H        11.93288023332552    4.20637555875418    5.20932694268072
N        10.07722209994104    5.47123259446692    3.92531252414816
C         9.80803107716918    6.18576350447451    2.83992186750048
C        10.85777709700366    7.11874268969619    2.35771104728847
H        11.70655931766142    7.10716895686619    3.03439415233694
H        10.45934820079757    8.12893236786070    2.28606016859279
H        11.18663727933754    6.82302446559439    1.36265105302968
C         8.57739206547551    6.04342271534865    2.20605565029580
H         8.31548525424132    6.61698541619287    1.33360012930590
C         7.68034514091380    5.11902405905908    2.73498279731475
C         6.38856586337536    4.87354078548446    2.18887972355452
H         6.01644109165510    5.38204869687767    1.31122928328159
C         3.83219153662653    2.75430475005303    3.03873571899197
C         1.92645762010605    3.51283002894448    1.23935760374365
H         0.90059043799132    3.35436377077722    0.92366296296746
H         2.61237127077725    3.30373623392837    0.42599421203711
H         2.06466589786884    4.52374202991048    1.60600730555975
C         5.19404267068885    5.27592299648176    5.95513948194275
C         3.82916847761338    7.56788362966772    5.35694149072876
H         3.48779673830789    8.21148924889861    4.55259869019251
H         4.49739962117280    8.10361816510839    6.02206112419780
H         2.98868970730637    7.15999551015894    5.90774032100465
N         4.81572048314775    5.76913096890709    7.11664145315123
C         5.12248424187703    5.13286961275204    8.24143422663638
C         4.64014583662440    5.72460965538652    9.51491976691476
H         4.17588204745503    6.68797879410665    9.32776846177656
H         5.46504254091295    5.84120582994292   10.21470546659073
H         3.90959246231969    5.05995565746149    9.97420529841251
C         5.86743100539657    3.95993977692576    8.18921363242224
H         6.14887545924873    3.42288909695953    9.07859304128214
C         6.23785556780404    3.48230536034457    6.93397742346821
C         6.99140869546640    2.29319145606511    6.73577641778145
H         7.32374160327794    1.66244366676002    7.54712694958073
C         8.10926990786123    0.64472897409841    3.94339680492879
C         8.94930493156201   -0.82524549864877    1.78590321177908
H         9.51031646232839   -1.70462060758214    1.48703575193155
H         9.39653657775986    0.06960441393776    1.36354439896908
H         7.91272003001546   -0.91587609165454    1.47520605518332

