36
CSD_code = KIVKUX | q = 0 | S = 0 | Stoichiometry = C13H17N3O2Pt | MND = 4
C         0.73733151439002   -1.56767349985694    3.52896100083006
C         0.74094569761857   -2.81821808415648    4.36530534296344
H         0.60935377150834   -3.70635855789445    3.74815878661520
H        -0.08362979732859   -2.76915816448342    5.07872364317173
H         1.66698571691812   -2.91079218117959    4.92566430066597
C         2.62389547121530   -0.58562969869382    5.48237100522324
C         1.86778673444553    0.05729295031321    6.63941986117090
H         2.43971451550208   -0.01035935186705    7.56453480882994
H         0.92430954435899   -0.47098374163453    6.76644611219120
H         1.64266753887172    1.09981345708496    6.41057312338527
C         3.30935823295610    2.20381569563115    2.40152437534257
C         4.18632890062321    3.25965679324667    2.11653573215773
H         4.03895105932285    3.83638865160688    1.21675493250847
C         5.21927746797673    3.53759730163261    2.98326107737298
H         5.90451656717676    4.34714299739374    2.78084717279866
C         5.36728610904662    2.75273849362863    4.12278531415288
H         6.16713438388722    2.93092493130520    4.82262649074030
C         4.46125181789756    1.73374230492559    4.34961137835103
H         4.55094245770041    1.10708664468537    5.22655537558818
C         2.22499834496995    1.86839260741937    1.52950064463687
H         1.99403761429608    2.49984707054849    0.67639245455595
C        -1.08512573939354   -2.49460839369917    2.16365717821955
H        -1.89614798127957   -1.98729826345237    1.63117833151963
H        -1.52054997660623   -2.99513890610238    3.03583014243437
C        -0.48594923666813   -3.52792408858894    1.24450847755598
H        -1.20341203374367   -4.24902757820070    0.87691176957069
C         0.78165464849310   -3.58667429362873    0.88577379428296
H         1.51445414592271   -2.87802875225096    1.23788831261431
H         1.14199107646460   -4.34964377715529    0.21834019151229
N         1.53448173402534    0.79765661844357    1.78257512094868
N         3.45270804740358    1.46555411476515    3.52594900489631
N        -0.13756063088393   -1.48584392335071    2.57614426628722
H        -0.02466065926705   -0.67713308106923    1.86827675830334
O         0.51395084634338    0.49587998271000    1.05375818461089
O         3.59006146602197   -1.29112571695649    5.68652647332309
Pt        2.05136062983437   -0.06831056111854    3.65702906066583

