38
CSD_code = KIVKEH | q = 0 | S = 0 | Stoichiometry = C16H16N2O3Pt | MND = 4
C         2.57703213414360    4.15165645173858    5.87706470422798
C         4.06993399729766    3.94815794795327    6.09745532630007
H         4.46646169406549    4.70632987313039    6.77203527507747
H         4.59439666706757    3.98255922335576    5.14075906056076
H         4.23323729014547    2.96341865254607    6.53089649350947
C         1.61324527237299    1.52241264164012    5.12190127672194
C         1.27325964422874    1.37024022234911    6.58996726328970
H         0.88378404566882    0.37228629425114    6.79034841045794
H         0.54702477436847    2.12986340327590    6.87898946400301
H         2.16936151373934    1.53201375435116    7.18590298501941
C         1.31764613192531    3.52977388976346    1.38177368473294
C         1.19041921286256    4.90699746145982    1.85846852764502
C         0.72195767928461    5.93344926493735    1.03760154090364
H         0.44810873621889    5.71951723843855    0.01629533372080
C         0.59839863468649    7.20758644882296    1.55878144351501
H         0.23580205024889    8.01625988366478    0.94224239500765
C         0.93602541036280    7.42520094332013    2.88769437189501
H         0.84652883911984    8.40236231603215    3.33361199181714
C         1.39325996231551    6.35590145340736    3.63975437943690
H         1.66255662316689    6.47986996482045    4.68048608265837
C         1.48275368759921    3.26800449246803   -0.05693001186300
C         2.38552911868875    4.02749999226325   -0.80039250847540
H         2.96787737634337    4.79626532422852   -0.31197687314000
C         2.55578282091480    3.78303993737439   -2.14950802813925
H         3.26311284632156    4.37101081314778   -2.71566349349074
C         1.82350912651693    2.78603140509326   -2.77363198823744
H         1.95662545121557    2.59821798758714   -3.82861328230770
C         0.92533507305464    2.02859309260410   -2.04076866829614
H         0.35419466889412    1.24993503387177   -2.52364383957806
C         0.75708146981326    2.26112466191686   -0.68845750268985
H         0.05647973884765    1.66869272661932   -0.12099940869827
N         1.27949666556556    2.61803585599891    2.29900458807488
N         1.52661061248281    5.13483720942617    3.13978519452502
O         1.45267469132584    1.32224402169244    1.92847055776123
H         1.51219473871567    0.81562670323055    2.80117475318578
O         1.60475578663946    0.51961601741888    4.40868342583678
O         1.94259550157308    4.92605968837072    6.56281953048532
Pt        1.78465031256502    3.30940770733086    4.27291754444298

