31
CSD_code = KIVKAD | q = 0 | S = 0 | Stoichiometry = C11H14N2O3Pt | MND = 4
C         3.46665195034610    3.09812026150950    0.79221308264593
C         4.26616524727004    1.85373735950432    0.46925556172366
H         5.09865429363087    2.09586722577996   -0.19123669335362
H         3.62024127940994    1.12623426518277   -0.01830353512080
H         4.62904466125810    1.40221885765641    1.39220730161264
C         1.79217763152982    1.27452196823525    2.29483791841198
C         0.69739845065976    0.83619264365828    1.33081579081975
H         0.35137394384189   -0.16885555419779    1.57094603179493
H         1.08590347552361    0.85179124318873    0.31460425013046
H        -0.13521103398172    1.54021814981579    1.37995462241919
C         1.60198697489713    5.87153516094111    3.44090922802197
C         1.14589728850362    4.95416360530473    4.48250070151512
C         0.68183867042710    5.40574613511142    5.71872279456381
H         0.65656468005498    6.46119932377172    5.93583030459833
C         0.27584491928075    4.48404867776662    6.66591286812525
H        -0.08389067283248    4.81433222836773    7.62872530089964
C         0.34628564057975    3.13247901134262    6.36088261998368
H         0.04570999256155    2.38182786149739    7.07338055238359
C         0.81214089405340    2.76005892766121    5.11037311286492
H         0.88621274552760    1.71707993636193    4.83271808128378
C         1.24418994362907    7.32337739084745    3.49112597400117
H         0.20349193778701    7.45864967896264    3.77754877237829
H         1.41141847616630    7.76470480540277    2.51108951425410
H         1.87745174849773    7.84295471412600    4.21047694683087
N         2.32177162130786    5.35296530414980    2.50790284820727
N         1.19065060789073    3.64047572170856    4.19526732889888
O         2.73930706296806    6.15860590467653    1.49690353061302
H         3.18767959057831    5.52698338758085    0.84782454291134
O         3.71469593933698    4.13183522951013    0.17135018795884
O         2.25328723266225    0.50113891687845    3.10899832810636
Pt        2.23476480663363    3.19879165769659    2.34686213052105

