46
CSD_code = KIVLAC | q = 1 | S = 0 | Stoichiometry = C16H22AuClN5S(1+) | MND = 4
Au        1.50223050846054    0.32245985311505   10.75772046974039
Cl       -0.68788908220727    0.73503755889132   11.31918780804545
S         3.68007818561070   -0.30804115299305   10.37546290047402
C         3.32294842726449   -1.10420165334706    8.82297345890405
N         4.39020355945473   -1.64935547684476    8.22458318873182
H         4.29211691839075   -2.01099508309836    7.29129636993328
H         5.30873494984620   -1.43606274172551    8.57235351264949
N         2.15522171882609   -1.20206174100224    8.31453178705276
N         1.09819186663596   -0.66853015805843    8.97490401489480
C        -0.08666054986123   -0.73697106183425    8.43493892541594
H        -0.86560095791512   -0.29009075554952    9.03774190442501
C        -0.44631635897787   -1.30718373252876    7.20270571700363
N        -1.75178292017534   -1.28550006516658    6.74997095428683
C        -2.87549144673179   -0.71323535472197    7.43907448195305
H        -2.73003315617243    0.35700777010544    7.59888205154754
H        -3.02312694866329   -1.19500898023991    8.40774279850540
H        -3.77126334429605   -0.85642729091331    6.83828078141530
C        -1.80259016459828   -1.88693928630985    5.55353296176662
H        -2.72464009186449   -1.98113977976918    5.01267464797849
C        -0.53529633963312   -2.31796474354322    5.19636031073467
H        -0.27683574405186   -2.83113193625706    4.29235554655002
C         0.32111491886337   -1.95754455871317    6.22495205807920
H         1.37499901999111   -2.13075677375646    6.29299932294504
C         2.01233696056918    1.36607996777139   12.38039385069411
C         2.59161703632600    2.61036879931118   12.17948136774856
H         2.79357835985575    2.95406419249474   11.17626761582769
C         2.92250949181607    3.42580594000493   13.24909794980984
H         3.37161882641679    4.38908141769628   13.06607682983663
C         2.66724240110389    3.00611530035379   14.54283047031105
H         2.91215444050654    3.63917498980479   15.38099864472965
C         2.08160533046189    1.77399740920493   14.75270737977119
H         1.85109652856203    1.45683102244705   15.76181251167949
C         1.75110415731352    0.94646390696701   13.67944206277098
C         1.11464123266831   -0.38245958139568   13.98745963382188
H         0.28962179297028   -0.23788784575607   14.68908360617765
H         0.71923184765130   -0.84763836109710   13.08320463683155
N         2.10733029753792   -1.30798142124122   14.61412407415190
H         2.56342099803582   -0.77094743170243   15.36255525748073
C         1.45389380119446   -2.48573902439106   15.20573937625011
H         0.73995517986873   -2.18174813727807   15.96915444998054
H         2.19461358823489   -3.14284063871940   15.65829451774734
H         0.92327237346915   -3.03444485516828   14.42930233384384
C         3.15174465542817   -1.70529015028149   13.65559599910158
H         3.92095179422544   -2.29134112235101   14.15449336088690
H         3.61039389185241   -0.82463186300910   13.20815016344346
H         2.71135204590430   -2.30279536959394   12.85950793299083

