74
CSD_code = KIVMIM | q = 1 | S = 0 | Stoichiometry = C28H32CdN5O8(1+) | MND = 7
C         8.69789763014681   -0.54543500363309   -2.02581188382393
C         9.36698138030541   -0.46254379485060   -3.24263608197009
H        10.43408442254999   -0.29795483646619   -3.23614705068653
C         8.67505975960078   -0.60714762623454   -4.42913781538826
H         9.19670809807642   -0.55215986429306   -5.37079532843667
C         7.30998218260605   -0.83730805026803   -4.38956628851068
H         6.75601034804881   -0.97086693623434   -5.30576876646172
C         6.64896877986322   -0.89463868330943   -3.17412032928439
H         5.58549695716258   -1.08162907737037   -3.17076054006726
C         7.31373687346815   -0.74325292499384   -1.95971906992672
C         6.51546628725028   -0.74930035115239   -0.67182393966123
H         5.61934926949086   -1.35654635228778   -0.82398567020581
H         7.09037559105362   -1.20944192104531    0.13512689357882
C         5.25006326172178    1.29141727088168   -1.17037662790122
H         5.72951492132998    1.35408772379661   -2.15879350608424
H         5.09459824619788    2.30381341061340   -0.79539674074328
C         3.87744581774305    0.63357588848608   -1.32115108279594
H         3.23235112887653    1.32605536948256   -1.87644845417431
H         3.94856901607163   -0.28625035915919   -1.91617037380994
C         2.24247991572837   -0.40297276895849   -0.04722162323083
H         1.91713581375957   -0.82946877073610   -1.00606675262901
C         1.40991056502491   -0.80496049505230    1.05738498143235
C         0.55690373314099   -1.89480804445895    0.83186413474191
H         0.55925264522252   -2.36299519878226   -0.14128572442340
C        -0.25881012836074   -2.39304835066152    1.82253949994054
H        -0.89553040103014   -3.24138330456153    1.63149677523569
C        -0.24655582230324   -1.79046251146136    3.07015912185977
H        -0.87463419048035   -2.16954256164991    3.86115037428787
C         0.56432154866048   -0.69664106596413    3.31660499998201
H         0.53665436749830   -0.26065084639767    4.30180349637220
C         1.39875578265215   -0.18422291942079    2.32686242961464
C         2.19060332340126    1.58950774126133    3.72243584672551
H         1.18196688319110    1.70394390866194    4.13247280789791
H         2.60859174377667    2.57620349012849    3.50760999278934
C         3.11005721787691    0.88961015040317    4.72465283735335
H         3.01051247408783    1.36363342671619    5.70924000877526
H         2.86340378841129   -0.17788052687039    4.79010945005687
C         5.47278390451073    0.68336398641989    5.04012985939289
C         5.30857819993138   -0.00373507267407    6.23680339428796
H         4.33227069415798   -0.32469154518852    6.55908454296504
C         6.40419160684320   -0.32720966355642    7.01765985818657
H         6.25393335684919   -0.87957437441196    7.93165486573165
C         7.68073173035257    0.05141375381104    6.63327290500247
H         8.53113405185768   -0.19896216520414    7.24646244074323
C         7.85352264704558    0.74407816628613    5.45578234082071
H         8.84603946397113    1.03106669036015    5.14314161695087
C         6.76857038789553    1.06300766477001    4.62718995200160
C         7.06664228419694    1.73257369976068    3.38725658530351
H         8.08805137226783    2.13009765648314    3.33903450713137
C         6.87646028519870    2.49563596049514    1.20167564436228
H         7.79581704572209    3.04739191805766    1.44051457409903
H         6.14576006506334    3.18505200128804    0.77589674095205
C         7.24185931752783    1.39318426249328    0.19903116211327
H         7.73981447078244    1.84923601795610   -0.66961103837461
H         7.93853271174310    0.73318909834518    0.71888433816448
C         2.59712227851968    3.68312628802442    0.71021990504932
H         2.17608080858253    2.79824354703680    0.23965147047756
H         2.80882877966685    4.44034383350577   -0.05103177822170
H         1.87183857303932    4.08615123697106    1.42106402642321
N         9.53194062873649   -0.43657807983281   -0.85067133005253
N         6.08965384399440    0.58547130830875   -0.20431662885809
N         3.27143350857660    0.35427952350765   -0.03481161213135
N         6.30058233941736    1.88427722806998    2.37694240005232
N         5.10177449176633   -1.45730285394319    3.03437028767337
O        10.44486731277316    0.35675785801517   -0.90028496943756
O         9.27425823247817   -1.13926184813074    0.10313812202742
O         2.17014554460121    0.92729988958023    2.47341417416567
O         4.43323387029642    1.05586613260112    4.23368394952135
O         3.78920221997144    3.26956391666544    1.35841369308819
H         4.12036653899893    4.01201751039985    1.87730070264762
O         3.95542033839257   -1.24070210734652    2.59457381954550
O         6.05546064095347   -0.98148319373369    2.41069093522334
O         5.25615391854605   -2.10634616886858    4.02917882198175
Cd        4.67786330295464    0.54022268952303    1.70947972056073

