62
CSD_code = KIVPEL | q = 0 | S = 0 | Stoichiometry = C27H32N2Ru | MND = 7
Ru        2.44957638558038    2.95153684915926    6.18928109663564
N         3.54633500197277    3.52360853511426    4.65825239405444
N         4.12758970471921    2.70951628424581    7.18733775986094
C         0.40394036825157    3.87897609562509    6.14868003837624
C         0.36455147626692    2.70913951621018    5.34782636891159
C         0.72112529840401    1.59676751889007    6.18812738245444
C         0.85966328744374    2.07450699850070    7.53660785413075
C         0.71738359353071    3.48670541593610    7.50445202545700
C        -0.10245880270627    5.23890072546623    5.77010049223736
H        -1.12773705625864    5.35740265821904    6.12811889307413
H        -0.09943522328278    5.37353486877762    4.69147881439067
H         0.50141926120538    6.02535664215855    6.22109978743378
C        -0.26813210701839    2.57549612052296    3.99585429812391
H        -1.31294757371051    2.28077196373574    4.12142619890999
H         0.22482117456904    1.81392254444446    3.39581564989731
H        -0.24230704102061    3.51239173505751    3.44630516085471
C         0.61670119800479    0.15297703013496    5.79278148007317
H        -0.41061778289030   -0.19553489475159    5.92192900657194
H         1.26446038355297   -0.46824013975824    6.40929679316540
H         0.89248842921325    0.01308911518716    4.74875653183437
C         0.78828934792654    1.20433784952013    8.75464814796126
H        -0.25682855363652    0.94567094237299    8.94240874131904
H         1.17587927934125    1.71050964082199    9.63439027330737
H         1.34354219827359    0.27913790963244    8.62018248333742
C         0.58501494611907    4.39554473019838    8.69021321929513
H        -0.47259690462101    4.55658409287546    8.91134217750005
H         1.03749589853410    5.36706698362808    8.49453738173272
H         1.05565439364278    3.96333894100550    9.56980517902325
C         4.86838219054551    3.63936889803904    4.52370048260769
C         5.75327404289057    3.33843046054879    5.55386104820847
H         6.80607858057480    3.46715579065349    5.35324655275363
C         5.39730139009047    2.89650367598346    6.82381065553300
C         5.44391835569470    4.12622280905428    3.21600328896574
H         5.01018165542762    5.08770595610462    2.94238186192558
H         5.21918524044317    3.42426368160662    2.41340152915362
H         6.52187272205563    4.23587889299809    3.29080742484961
C         6.50209248592155    2.63791397558079    7.81920211295678
H         6.35305894305098    3.23563975816498    8.71813752744451
H         7.46852165654241    2.88509176593123    7.38967413160661
H         6.51043654641820    1.59045188844813    8.11930454674180
C         2.76819894006151    3.85603046044717    3.53450110260072
C         2.26467736503205    5.14827162442908    3.38439060058110
H         2.45876296770999    5.87441812522702    4.16208736473981
C         1.53553281135257    5.48737341203748    2.26037167296817
H         1.14584000599515    6.49037805067807    2.15704091539568
C         1.31548660798135    4.55301060867109    1.26068938603435
H         0.75425985381683    4.82386568300769    0.37880529926583
C         1.82199761577371    3.27062953274360    1.39736359941851
H         1.65483801954528    2.53976995366441    0.61916016347023
C         2.54648052470058    2.92224327051768    2.52132866075949
H         2.94724824739197    1.92389419493157    2.63597329818743
C         3.90947278930696    2.26202447196747    8.50285367942620
C         3.97938378280710    0.90319236084334    8.81291991946805
H         4.15941903628078    0.19537931799434    8.01472502665774
C         3.81559242050546    0.47550008904569   10.11669385328128
H         3.87092408793802   -0.57905162311102   10.34610814102269
C         3.58829407358081    1.39196339187945   11.13063408430775
H         3.46633954976239    1.05532904041319   12.14933170813639
C         3.51970534546180    2.74345088803726   10.83093874454496
H         3.34514445672386    3.46263086390451   11.61890164954434
C         3.68885279940100    3.17948244437799    9.53044476735401
H         3.65607430780766    4.23296961224579    9.28744957016221

