62
CSD_code = KIVPEK | q = 0 | S = 0 | Stoichiometry = C28H31NPRh | MND = 6
Rh        7.41859764884757    3.38661469999197    6.94900404138172
P         4.86265562034996    2.79207958387313    7.13384373677388
C         5.99821112172189    2.30416340141036    5.86090523152452
C         9.00432429277986    2.93822992221541    5.63928055961963
C         9.05838269612974    2.07211476770088    6.73729265056242
C        10.08549516619484    2.19054794672151    7.84828073494574
C         9.59992545421946    3.06886717596862    9.02107145998419
C         8.58718653814303    4.11422596282878    8.60499256778649
C         8.77071432610589    4.98117620127607    7.54361217792292
C        10.02870437087951    5.01504645699378    6.70453191049840
C         9.90323450025625    4.13830305056160    5.44481737809627
C         5.09305673052637    5.09369083149847    8.47492883542669
C         5.51550682042248    6.42680260455637    8.45028605695414
C         5.09098566206750    7.31906632996128    9.41138724784238
C         4.22519936530037    6.92829446125359   10.42743019484697
C         3.78912786035724    5.61039204317572   10.44281123983382
C         4.21380627417805    4.70857151481299    9.48836353105523
C         3.75790840719400    7.91466232495182   11.45604101337796
C         4.88091990751408    1.53082557766014    8.46106714400153
C         6.12936300284639    1.18299157706411    8.96183163873007
C         6.23893913224901    0.27174388001902    9.99469109606141
C         5.09615551092510   -0.29121225868457   10.54081395661687
C         3.84860714015999    0.06485615035449   10.05465884267511
C         3.73573649972558    0.97630058225001    9.01956391687837
C         3.11695912127205    2.91426405002411    6.62018383302494
C         2.50180628979629    1.78461265119344    6.08806852018060
C         1.21784186236538    1.86860738793358    5.58534679060025
C         0.54923399665860    3.08363043030412    5.59761715538050
C         1.16976619341810    4.21479634184424    6.10173391723212
C         2.45632798599176    4.13531884523276    6.60532438974536
N         5.52463683375375    4.22605351566791    7.48654381930103
H         8.62900983941551    2.53098511641207    4.69956136235669
H         8.69755438799025    1.05528322417481    6.57322029588873
H         7.89794552724974    4.41036071835785    9.39849518951271
H         8.19342260426144    5.90314793877143    7.53573042791191
H         6.16502113737827    6.75186531647719    7.65082582420934
H         5.43227306555021    8.34446365321842    9.37134443211785
H         3.10774804004791    5.28086787646565   11.21549421716085
H         3.86803638568906    3.68151001418146    9.51364087042638
H         7.01366922991428    1.64919061426244    8.51940933718731
H         7.21223795033424    0.00042018737121   10.37756441011293
H         5.17625134374929   -1.00240411245888   11.34979348609162
H         2.95726884344268   -0.36713996126144   10.48629340189855
H         2.75884321199942    1.25717314845401    8.64990371990591
H         3.03996772786639    0.84493857168730    6.07942866931237
H         0.73682307991092    0.99023248261504    5.17944561947509
H        -0.45487010922385    3.14869588437982    5.20482537323856
H         0.65115288722506    5.16245256527701    6.09968783134117
H         2.95146584502311    5.01389836641056    6.99421358815614
H        10.31278147801805    1.19274699997665    8.22943818853203
H        11.01091851060921    2.59121038412549    7.43247188148428
H         9.14204161755490    2.43195335651832    9.78173904642052
H        10.45540067999303    3.56480171511192    9.49301698965958
H        10.22634022992805    6.04429448285249    6.39784660055820
H        10.87495387522970    4.69189730167656    7.31167024627635
H         9.48398816995568    4.74074929097389    4.63527430889626
H        10.89416129303170    3.80192930080771    5.11920040415356
H         6.02370886588733    1.22450268357526    5.69147209703589
H         5.71635845630746    2.82666960882127    4.93841366493459
H         4.57617537750038    8.55926538265056   11.77206949093148
H         3.35579699290745    7.40430125882388   12.32824447088762
H         2.97343712290574    8.54989861866803   11.04193896505746

