95
CSD_code = KIVRUC | q = 0 | S = 0 | Stoichiometry = C48H38N2O4P2Ru | MND = 6
Ru       -0.85701238497089   -0.00009451085064    5.68613696908685
P        -0.77285078447334    0.14545278112925    8.00195220675480
O         0.06967325507844    1.88281084369281    5.27871384700949
O        -0.43197798461871    4.03189899548891    5.05308095612417
N        -2.45369004770221    1.19546951528296    5.64864144461780
C        -0.73594726445077    2.86901973822287    5.26572948960425
C        -2.19476062275155    2.50451074635688    5.52632183464601
C        -3.19064640721342    3.46586086711762    5.57710647905741
C        -4.50339724842310    3.06399539625717    5.75380377375652
C        -4.76986189039709    1.70390296662011    5.83369784303357
C        -3.72103628711609    0.80588743969592    5.77045111749820
C         0.26297997409760    1.33192588852029    8.92059629291173
C         0.27134310693106    1.28778950399862   10.31404362683766
C         1.06674629457399    2.16174515767419   11.02811898932634
C         1.86327927575635    3.08080686743330   10.36017833685087
C         1.86599959969764    3.11955809334960    8.97702952733765
C         1.06976520095639    2.24508136057616    8.25528766516683
C        -2.43282200926780    0.44773402541994    8.68367012160016
C        -2.76413339580574    1.64895223344767    9.30409532707385
C        -4.06442584242367    1.88266713362866    9.71523912952136
C        -5.04519398759502    0.92707840762986    9.50871864401020
C        -4.72957909309186   -0.25584479441784    8.86042341714613
C        -3.43554570627957   -0.48910788061471    8.43199669956966
C        -0.17059073956811   -1.38200273546312    8.80815569682271
C        -0.96677354908372   -2.35578009446032    9.39570368941851
C        -0.39442808588238   -3.51925121246833    9.88108770285940
C         0.97067593962254   -3.72243273214819    9.78835951550243
C         1.77542439125734   -2.74341633300958    9.22810684487081
C         1.20894926998121   -1.58166996036493    8.74356725127706
H        -2.90422241323539    4.50067526222020    5.47316354709638
H        -5.30187291864526    3.78777368851355    5.81292147861695
H        -5.77952704887278    1.34050449396081    5.94390444396994
H        -3.88389299277737   -0.26359812772772    5.80964469775261
H        -0.35030332105471    0.56651359529361   10.82844968630765
H         1.06835392267947    2.12830263050505   12.10804817180900
H         2.48264233130513    3.76425634862518   10.92247067780902
H         2.48579376167169    3.83318167591833    8.45487630457461
H         1.06877826780746    2.27327092343496    7.17528247135251
H        -2.00595882393782    2.40313816881911    9.46269813853354
H        -4.31203871430288    2.81653624952850   10.19859471320272
H        -6.05666119188125    1.11031624501394    9.84050054488961
H        -5.49707925767548   -0.99410516765655    8.67783796587620
H        -3.19556689451333   -1.38607181482091    7.87689510930637
H        -2.03219929310776   -2.21317934318372    9.48489521524038
H        -1.02405103902962   -4.27463181854366   10.32683857328423
H         1.40870826812697   -4.63840599677981   10.15575698867995
H         2.84439444712551   -2.88766026008239    9.16348201827779
H         1.83669127106277   -0.81143080843362    8.31104825061896
P        -0.94099371638355   -0.14546030168471    3.37058131817748
O        -1.78358464227037   -1.88287933069212    6.09400471655330
N         0.73982369601353   -1.19543391468500    5.72408704511080
C        -1.97677461811343   -1.33198788444213    2.45194676038014
C         0.71900711178216   -0.44767011901772    2.68890842862807
C        -1.54333027235311    1.38200077786664    2.56445662480050
C        -0.97791896971485   -2.86905344947075    6.10694145808895
C         0.48089414850729   -2.50448310128472    5.84635240559605
C         2.00716179029909   -0.80584793643855    5.60217092907486
C        -1.98513151523431   -1.28784887418033    1.05849883404835
C        -2.78352924990806   -2.24517619177240    3.11725065077442
C         1.05037451867346   -1.64885442094868    2.06844597714464
C         1.72167829273130    0.48922462326225    2.94059665176784
C        -0.74720133085942    2.35581950686460    1.97690503241700
C        -2.92288814800782    1.58156670059195    2.62901333807839
O        -1.28185301900666   -4.03197000905647    6.31954501822147
C         1.47678125459058   -3.46582935996878    5.79550761943623
C         3.05598699111691   -1.70386308568793    5.53890122118148
H         2.17002318414981    0.26364124791325    5.56303183802484
C        -2.78049356062878   -2.16183892632310    0.34441816427085
H        -1.36351098814689   -0.56654691100383    0.54409786667724
C        -3.57971566722853   -3.11969144101772    2.39550311528881
H        -2.78254594584810   -2.27337442233257    4.19725393348056
C         2.35067706462094   -1.88248530989702    1.65728566491955
H         0.29224238683150   -2.40308247079839    1.90983702364178
C         3.01572013798468    0.25604205387199    2.51215302574058
H         1.48164541241077    1.38619109615262    3.49567176795246
C        -1.31962688227458    3.51922441648018    1.49145712629124
H         0.31822261150587    2.21324023186259    1.88764080642297
C        -3.48943775555697    2.74325569202476    2.14442840717804
H        -3.55058133274058    0.81128960915445    3.06153646569345
C         2.78953300128911   -3.06395259659465    5.61885050854990
H         1.19035118089588   -4.50065070074604    5.89939425646054
H         4.06564832228078   -1.34046556792350    5.42867242259000
C        -3.57698384592293   -3.08094115451809    1.01235435781491
H        -2.78209551014443   -2.12839711313445   -0.73551091231480
H        -4.19949267397776   -3.83333367315273    2.91765119226984
C         3.33139332145722   -0.92684667680848    1.86382225752604
H         2.59835433918882   -2.81635663767979    1.17396991616616
H         3.78318445352273    0.99433167128210    2.69476893441316
C        -2.68474806749603    3.72230550770497    1.58414939247884
H        -0.69004634375104    4.27465828261754    1.04573632226105
H        -4.55840473980947    2.88748152992561    2.20914633817425
H         3.58799939503458   -3.78773641637364    5.55963373294861
H        -4.19632840043432   -3.76440306736142    0.45005751993832
H         4.34288366375759   -1.11005056954144    1.53209194610319
H        -3.12282042053401    4.63830503432541    1.21685914315486

