96
CSD_code = KIVROY | q = 0 | S = 0 | Stoichiometry = C33H56N2O4Zr | MND = 6
Zr        7.40955402035650    3.64216174457310    5.14423184453777
O         8.70492648303915    3.43453106332036    3.73693469040892
O         7.29471138935809    1.88008748203986    5.90601031574110
O         8.30225714705846    4.81408395754384    6.40370051906623
O         6.98104037210401    5.86328872364863    4.21971918431344
N         5.62580211811150    3.41978057225426    3.82103598095638
N         5.57400440721393    4.11929596726414    6.53967168863278
C         4.45469326060510    3.66526539339093    4.50658872185690
C         3.35312924320553    3.52044657703510    3.64267045358111
H         2.31978330530575    3.65091109582393    3.90569360760916
C         3.87267164626279    3.17486447773240    2.40651473509846
H         3.32814114790536    2.97856549959952    1.50238844547218
C         5.26004925614336    3.12357806784867    2.56937746301720
H         5.98608553070119    2.86541536859761    1.81501693781834
C         4.47400474091089    4.00531218689246    5.87553625016194
H         3.50130319290236    4.17777327716146    6.35878693514627
C         5.51060513978374    4.46551606885954    7.90504824222120
C         5.53456890583552    5.81729626212257    8.27998126611053
C         5.46448070584242    6.14722325788125    9.62542762808879
H         5.47236173166288    7.18353009594533    9.92614876292851
C         5.36739496182866    5.16592949985606   10.59249596364217
H         5.30568364874350    5.43679341519726   11.63638546481195
C         5.34157217548291    3.83614331819204   10.21785311735232
H         5.25543637403215    3.07964129636245   10.98153808734546
C         5.41414303431836    3.46220549842145    8.88324722204428
C         5.36556056329068    2.00576889088800    8.47944648731613
H         5.89606877065313    1.91075274998757    7.52244377094893
C         3.91119833184356    1.56080503101567    8.28494522127516
H         3.33393102115215    1.73863160944302    9.19168081545268
H         3.87311397786496    0.49758548337100    8.05613144951838
H         3.44293888188248    2.10055988964160    7.46578440849158
C         6.04365804892173    1.08833538184649    9.49899625847110
H         7.03726451476034    1.45457139354741    9.74375706292376
H         6.13777641213384    0.08816846775625    9.08308367497848
H         5.46095568726857    1.00963427571769   10.41485377219960
C         5.59012261676888    6.89250848940299    7.21842037985945
H         6.00263184337929    6.42337503757461    6.31880590227833
C         6.49524981499554    8.06165854207404    7.60986698669229
H         6.07626661894786    8.63070827828351    8.43664650996032
H         6.61336011902332    8.74391944452690    6.76925696517500
H         7.47608883151262    7.69482591603819    7.89966166774292
C         4.17421572302019    7.40076723476997    6.92291390583886
H         3.54604299162395    6.59953867956748    6.54038708455324
H         4.19646851591782    8.20063593008392    6.18420704106358
H         3.71630520958634    7.78824844824175    7.83140746330873
C         9.34163395619375    3.61167312127030    2.51735916222754
C        10.80226669545017    4.06916739907466    2.74165874275866
H        10.81898917719905    4.95819046420194    3.36976417324442
H        11.28353681598377    4.29511073915075    1.79292587879746
H        11.36403926689339    3.28511182218308    3.24446010072584
C         9.37339119183964    2.28875407602456    1.71285637028752
H         9.80631825295604    1.49332274942514    2.31448263906176
H         9.97161687957754    2.40961588085023    0.81218292841323
H         8.36531414745993    1.99768529834484    1.42549557141168
C         8.62098768977071    4.67073244865606    1.64936735696155
H         7.54619319578570    4.51034389514511    1.71231033912272
H         8.93549101002728    4.58759604089666    0.61037257896202
H         8.85093770542034    5.67371033820843    1.99746959125904
C         7.67726551281034    0.65624886235228    5.36448634735032
C         7.02845996648458    0.47808766373587    3.97826381005561
H         5.94282021665680    0.49815157057035    4.07787892923627
H         7.32766979707959   -0.46329474626040    3.52022410175610
H         7.34173109432785    1.31459425161641    3.35362014816378
C         9.21209455007629    0.59999030870716    5.21676003188417
H         9.52279984949176    1.45616986510672    4.61585469414023
H         9.52343780406544   -0.32417521439784    4.73284357087897
H         9.68263350539776    0.66120955038902    6.19770072017628
C         7.21698447862882   -0.48716894716384    6.29158585355378
H         7.67744384869892   -0.37350246136191    7.27009430524957
H         7.49867810635067   -1.45191842172847    5.87638816715801
H         6.13619520267474   -0.45171972711997    6.40709121873432
C         9.33854446178142    4.45610558820850    7.25641721136144
C         9.73261658438998    5.66742606645429    8.12954804261918
H        10.01426098375206    6.50663234351613    7.49602615547120
H        10.56927154106143    5.41599128812475    8.77682976935759
H         8.88474099988590    5.96070255492006    8.74479621167743
C        10.56067152479979    4.00783857103622    6.42361674087272
H        10.19930934931568    3.32450045503381    5.65049612048445
H        11.30800525854769    3.51534425710939    7.04314661194619
H        11.01928646516449    4.87242628511403    5.94405914544145
C         8.90015324845677    3.30153166315206    8.18136948747555
H         8.12083926173234    3.65650471730797    8.85432952762328
H         9.73679578213794    2.93073735995817    8.77178917907240
H         8.48974319880618    2.50211781461500    7.55902930716400
C         5.93952424816603    6.51076262876771    3.47871850543915
H         4.97555135780123    6.27354477916354    3.93874912952200
H         5.93831271088873    6.12738801496144    2.44895729010253
C         6.25414593345402    8.00474607289586    3.49321538116409
H         5.86358193374078    8.46686803187681    4.39952032854652
H         5.84288105565957    8.52039796192769    2.62846999817878
C         7.77944375089381    7.99569469319154    3.52025560241615
H         8.17134353607107    7.83997681207392    2.51418798136712
H         8.20397849717065    8.91295431025685    3.92226200671271
C         8.06287419156797    6.79085056749940    4.41495777370664
H         8.99440024410755    6.26795023040761    4.18170956612673
H         8.08497153007516    7.07668076320670    5.47224523856418

