85
CSD_code = KIVRUE | q = 0 | S = 0 | Stoichiometry = C34H44N4O2Zr | MND = 6
Zr        1.51580018019581   -4.84280336540519   -3.46568736851469
O         0.19938219354040   -5.99881627059662   -2.67265483486478
O         2.68609599447831   -6.08006449268151   -4.30560728548126
N         0.32680342789146   -4.12329721533189   -5.14427314276325
N         0.16115015103078   -3.22421746238497   -2.56686459164109
N         2.60729175000131   -2.92167211811721   -3.80047079648455
N         2.91204438321446   -4.62422517422121   -1.69913082453283
C         0.19057552079708   -4.29042999781157   -6.46615326804330
H         0.75302430884850   -5.04207926903660   -6.99749394259068
C        -0.75152826279955   -3.40820559332428   -6.99664306496415
H        -1.04871394440064   -3.33245309745752   -8.02536336333946
C        -1.22377755965852   -2.65700301024854   -5.93107545569281
H        -1.95764869357579   -1.87439721567398   -5.97149649039323
C        -0.54228557305778   -3.11037472975046   -4.78847012512781
C        -0.61711860194688   -2.66105788468307   -3.43946728679823
C        -1.60993539540375   -1.57989360007314   -3.09808598915732
H        -1.74681815117778   -1.50682265931187   -2.02135071951031
H        -2.56649219850345   -1.79259682257661   -3.56931192413085
H        -1.25496790047825   -0.62110798188220   -3.47410466743338
C         0.27918716707048   -2.82199896328132   -1.24164979249645
C         0.65221562709178   -1.52634713368736   -0.87730761213843
H         0.80232075195271   -0.77934254050066   -1.64362703184178
C         0.87644266484198   -1.21591468760503    0.45134509858890
H         1.17551739047262   -0.21091269003180    0.71609283121750
C         0.72506899998342   -2.16921576296929    1.44996141747859
C         0.32990345463835   -3.45302392777402    1.08368693554665
H         0.19644087606745   -4.20388114535734    1.84978575352486
C         0.10965266758486   -3.77993903974295   -0.23792731907874
H        -0.21523228976664   -4.76860097134992   -0.53399386763398
C         0.95728266829101   -1.82262217835170    2.89001511717390
H         0.01290622196996   -1.56279447908382    3.37042746218247
H         1.62733990429434   -0.97086072224066    2.98297319876081
H         1.38363519030551   -2.66761695976038    3.42670546778387
C         2.56378896735095   -1.85651306966080   -4.60584666854428
H         2.16225807413461   -1.92595294337238   -5.60546042149171
C         3.09534591700839   -0.72058659927380   -3.98511491302302
H         3.18676509498555    0.25832172946623   -4.41635800883067
C         3.48036810096635   -1.11637762028775   -2.71582315265756
H         3.93120029766510   -0.50414850708669   -1.95768344072486
C         3.16626466911821   -2.48596474382211   -2.61229549324411
C         3.34827890858199   -3.40062865651846   -1.54349874857183
C         3.99740158696080   -2.89688951556111   -0.27990207397349
H         3.86805715013009   -3.60699392745429    0.53345913676316
H         3.54085589153122   -1.95054062029788    0.00112855419694
H         5.06098077997330   -2.72381915406527   -0.43778443250840
C         3.25935462305310   -5.65904488218702   -0.83201275355226
C         4.58148117743982   -5.88487833651126   -0.43708689027967
H         5.36604816378307   -5.23343863606213   -0.79487331888287
C         4.89916739704055   -6.95740679088068    0.37604554282523
H         5.93022366115500   -7.11784491375609    0.65878433510567
C         3.91908249668712   -7.82521849589292    0.83564026783220
C         2.60458862472302   -7.60326920028085    0.43280576038511
H         1.83145537617807   -8.27730270774669    0.77556831008897
C         2.27494866235786   -6.54925869928117   -0.39378386189377
H         1.25985824020688   -6.39486078560564   -0.73477594983778
C         4.25487875478501   -8.98627695000869    1.72194191329442
H         3.62618973437913   -8.98300652123594    2.61122640895409
H         5.29662756932607   -8.95291155822711    2.03072148483324
H         4.08103851222265   -9.92508436601387    1.19630271067702
C        -0.14883233960127   -7.24586729865626   -3.18607017908756
C        -0.32159100566047   -7.15894130536632   -4.71809042555852
H        -1.05573096227353   -6.38742586363505   -4.95835932300050
H        -0.66299906478480   -8.11082589748342   -5.12310189411018
H         0.64665894673224   -6.89504322739719   -5.15622477620265
C        -1.47976515247781   -7.69413181017204   -2.54759915334867
H        -1.37174021105924   -7.74274651763850   -1.46595244650423
H        -1.77781619417246   -8.67201792507148   -2.91724200995434
H        -2.25651054825664   -6.96920736933679   -2.78211663855013
C         0.95211585894901   -8.28707481084854   -2.88571745594126
H         1.91550747779579   -7.84669231041059   -3.15622607065758
H         0.78782538266487   -9.19413176513338   -3.46387980687194
H         0.96142151488212   -8.54661250502515   -1.82967857458403
C         3.87813255007261   -6.02363378501746   -5.01533877257802
C         4.30221598137886   -7.45774991906696   -5.39676645254166
H         4.48173732793532   -8.03786860095330   -4.49411563808524
H         5.20579436920692   -7.44766404833614   -6.00101227425448
H         3.50231276712144   -7.93612148114439   -5.95795515569233
C         4.98695592036997   -5.38521039484764   -4.15291136685785
H         4.72571314366857   -4.35026984307142   -3.92992470753493
H         5.94151524870070   -5.40880231790656   -4.67537491678714
H         5.07978611756028   -5.94142026302036   -3.22056713408342
C         3.69074085760837   -5.18620510221995   -6.29744999214596
H         3.02495824226707   -5.70744519252824   -6.98362913932458
H         4.64430244003360   -5.02272015364421   -6.79542018378213
H         3.24821997581554   -4.22498465814317   -6.02918232649146

