42
CSD_code = KIVSUD | q = 0 | S = 0 | Stoichiometry = C17H20ClNRuS2 | MND = 9
Cl        9.44641865385067    7.04183955068187   -0.65628580534730
S        14.13467627570485    5.93431984081004   -0.38254297608819
C        13.21961963594940    5.04336543837412   -1.48799906907920
S        13.78114433606083    3.74523148759090   -2.51685709134406
C        12.15571377499130    3.61288494911343   -3.14931618881379
C        11.68929546669702    2.73629205808946   -4.11130823680814
C        10.35501896821202    2.80585705583922   -4.46586611842910
C         9.50719625190725    3.73385071230848   -3.86852066941060
C         9.96607483447988    4.61161168189303   -2.90839532972830
C        11.30697609798875    4.55742685365702   -2.53770019970218
N        11.94634446548824    5.33730079047057   -1.61269007098518
C        13.11416550866750    6.24013812960330    2.69460543939439
C        11.30944036845713    5.26300123351852    1.17377904591576
C        11.82900827913853    6.34187887474168    1.92576987571054
C        11.07875740425002    7.53580155816609    1.82360957699839
C        11.54565679853746    8.84043070111316    2.43960514717755
C        12.67954666047358    9.46452535901370    1.60260038924522
C        12.80475174831264    8.77456270630958    0.25818825983958
C        11.87615335243544    8.97828217605841   -0.79358517487928
C        12.10507348913717    8.15524763647440   -1.91757646871605
C        10.70903868173008    9.91687778620534   -0.70671115850126
Ru       11.77272155541042    6.89558997285955   -0.17587394808084
H        12.35652420805944    2.02156544896973   -4.56651961566753
H         9.96972357575204    2.13085469421953   -5.21464557313842
H         8.46888531812580    3.76892239434360   -4.16091599087155
H         9.31513766886230    5.33134992406098   -2.43875671083860
H        10.21173029639836    9.87065959672841    0.25853024148612
H         9.97737094246698    9.69314365436871   -1.47879401239385
H        11.08130974384797   10.93213848845985   -0.85838191108019
H        11.38120258943346    8.19466255999555   -2.72819579048834
H        13.13190486729690    7.98374176732421   -2.24968832499598
H        13.84092847784753    8.60263797087730   -0.04256783177810
H        13.62991818697433    9.37807279137030    2.13124153639507
H        12.49393726226630   10.53121515891321    1.44583317938113
H        10.69889647769350    9.52537376552623    2.49799248790544
H        11.88525798871426    8.65873479011705    3.46334324170141
H         9.99188021157976    7.42757431379243    1.79288673387790
H        11.87857229256721    4.33333145706917    1.16923952325776
H        10.22913956340768    5.11332056987872    1.13821099187760
H        13.63887239323651    5.31770146605510    2.45674438158440
H        12.87275388784512    6.23673693246568    3.75907331039109
H        13.78266143975060    7.07494570255942    2.49974090502990

