92
CSD_code = KIVTIT | q = 0 | S = 0 | Stoichiometry = C33H52N2O4Pd | MND = 4
C         8.92022523378054    6.12291949812526    0.90959055371996
C         9.55760470918898    5.09784938255834   -0.02140617976642
H         9.36716382417836    5.37005627750823   -1.05495485170634
H         9.13496162177877    4.11608967771870    0.18136669946183
H        10.62699813268725    5.05988395268952    0.17068501960829
C         8.71985429158876    4.71928033541438    5.69991528994067
H         9.24366825962166    3.93080127547337    5.15927556791952
H         8.14420007097843    4.25205788784861    6.50607782267071
C         9.71371385009382    5.68378629662463    6.29796116956517
C        10.90710650337348    5.97144995222716    5.62079212135566
C        11.81432786406118    6.89669671933111    6.15427981515117
C        11.59359611193512    7.41274199092913    7.43262493071586
C        10.42702087181559    7.08032497749605    8.10317552167223
H        10.26129408995825    7.48475206920340    9.09252238351896
C         9.46272416087731    6.25530756499962    7.54848287601237
C        11.25949969080906    5.19352801467412    4.38378345848161
H        11.05513473210519    4.13402519629053    4.53341063807443
H        12.31031315872612    5.28565750555527    4.14925856635629
H        10.68333538587597    5.53536824805964    3.52414766436251
C        12.59523716008491    8.29308823702938    8.12813568890969
H        13.58487594363513    7.83852483745791    8.11566631884497
H        12.30313846266555    8.44192416660691    9.16497289556409
H        12.66731163535081    9.27622180802551    7.66120156182309
C         8.22218012883229    5.95236459739902    8.33968749847793
H         7.32041464712946    6.16423841808456    7.76983957625777
H         8.19945239580237    6.55634578166320    9.24379801093373
H         8.20025858144784    4.90340647404637    8.63825897940091
C         6.86675695409712    4.49325087483887    4.06365476413609
C         5.94658831022264    3.79561888853004    5.07637636909183
H         5.16135680810727    3.26076259918626    4.54834034932573
H         5.48155575889032    4.53299861140549    5.72727808720989
H         6.48685677974356    3.07429677064220    5.68466607324291
C         7.61517773476577    3.45794536130508    3.22015651439987
H         6.93484025424574    3.00991095032119    2.50029951049001
H         8.02534470321327    2.65872848378758    3.83322580220015
H         8.42432988710529    3.94463470471481    2.68206516489845
C         5.99603243561887    5.37453980944072    3.16125720008037
H         6.61131009016781    5.86837303691998    2.40367506100974
H         5.48098827750375    6.12157236807887    3.76683633337006
H         5.24750643586067    4.77284495082229    2.65063962107439
C        13.01250797525479    7.33741870970249    5.33794483482083
H        13.49900754726660    8.18684688549681    5.81967454756922
H        13.74565719697145    6.52979122468866    5.31230064586382
C         7.00880492140255    8.22009239351625    6.07202177866660
C         6.87188135890999    9.25593688747403    7.18252837991688
H         6.07052611166149    8.96957617243813    7.85687127327794
H         6.65207911488092   10.22709564137583    6.74442728159003
H         7.81413063161870    9.32385964262468    7.72038647521962
C         9.85275241125943    9.70023913849330    2.20679461113818
H         9.90340516513846   10.12813501172343    1.20007966013032
H         9.87138856009925   10.52254441178166    2.92223700588004
C        11.04611206018751    8.80426382305572    2.42320498139297
C        11.53029383336206    8.58303889847225    3.71980138101469
C        12.61718337784832    7.72339816964774    3.92757358167279
C        13.31167194814066    7.21919968967686    2.82661586805550
C        12.83964443901747    7.48502338429064    1.55071897696673
H        13.37903094032060    7.08731907989334    0.70180457597780
C        11.69642061593729    8.23349876867413    1.32551038343508
C        10.95303409846273    9.36111619512030    4.86872607830708
H        10.82949756330214   10.40750762831257    4.59231267862381
H        11.60787083718927    9.33402471059786    5.72817236149267
H         9.98050135631256    8.96811633071084    5.16382416613721
C        14.57743185412446    6.42017454355740    2.97305980309595
H        15.04092643202900    6.27583430732061    2.00003383105760
H        14.38997592345185    5.43379086696998    3.39927457070067
H        15.28900726222462    6.93712623472090    3.61533821813616
C        11.24110323384150    8.46061942427617   -0.08796680132845
H        10.19421351966639    8.19741191903305   -0.21928796309831
H        11.83008281327206    7.85419700549355   -0.77205308931622
H        11.37021221452454    9.50577794935995   -0.37273240779585
C         7.37702158210391    9.81979475940872    2.30203211168674
C         7.37104391220427   10.87070177146405    3.41534623024408
H         7.66798437109504   10.40733484569212    4.35260853065997
H         6.37016967979049   11.27996251789093    3.52814445530878
H         8.04534456136492   11.69551303150147    3.19669999168835
C         7.28613285068620   10.49550575270429    0.92574306503429
H         8.05650015310300   11.25143298792521    0.79420261843983
H         6.32109073156018   10.98465582820949    0.82088720392402
H         7.38001235551509    9.75032113813515    0.13835789670567
C         6.16933951606483    8.88877830835104    2.45482776544111
H         6.19539980855139    8.12466635699965    1.67635294532388
H         5.24248365710578    9.44922278734137    2.35245269434380
H         6.17481046169788    8.41660526525372    3.44150020018013
N         7.81049225437481    5.39886079976852    4.76333764628996
H         7.19302028815688    6.01052826102503    5.32705113124488
N         8.58805488455739    8.96637550939565    2.37627660262920
H         8.49345265365470    8.33206017825611    1.56281265881578
O         9.20213358147398    5.99531155254547    2.13294099566475
O         8.18547754960147    7.00537622187650    0.44888874135901
O         7.99016895824314    8.38422144674121    5.29617261049883
O         6.19016349208392    7.29670679623160    5.98253358176581
Pd        8.47279143143595    7.18812028176412    3.66971218629442

