91
CSD_code = KIVTEP | q = 0 | S = 0 | Stoichiometry = C32H52N2O4Pd | MND = 4
C         2.57243079121363   -1.23732581176018   -0.72597392569151
C         4.09493383246395   -1.29706878589228   -0.67446397511740
H         4.46498509205356   -1.94224318824019   -1.46558691148980
H         4.39893316527115   -1.70408083726128    0.28820825628845
H         4.50057237332646   -0.29419887170470   -0.77561900079353
C         0.12779279867101   -0.43318234856532    3.06708036126669
H         0.97977565286318   -1.11153635024224    2.98690341757482
H         0.12540330637343   -0.01554552594138    4.08115866634266
C        -1.16158195040960   -1.18484291238574    2.85257599107304
C        -1.15316262852500   -2.40570048549658    2.16903222978538
C        -2.34427728446036   -3.09362825226604    1.98559197861148
H        -2.33388030004766   -4.03839866271029    1.46068421143035
C        -3.55030110787475   -2.59177548108410    2.44918630542912
C        -3.54008824326764   -1.39186326840927    3.14055768446932
H        -4.47071160824795   -0.99396936715596    3.52143413805571
C        -2.36596276819828   -0.68500988010729    3.36099845272559
C         0.12637992352541   -2.99956821189024    1.64917225525568
H         0.81896573543195   -3.20703132247691    2.46543692018354
H         0.61182648782368   -2.31222650833883    0.94343119400581
H        -0.07437601258030   -3.93688250840753    1.13721940813382
C        -4.82476820062748   -3.35022463417299    2.23087954884699
H        -4.85213183669059   -3.77573657118471    1.22976590102657
H        -5.69006645709106   -2.70520065166217    2.36384584291816
H        -4.89877708901143   -4.17052047932085    2.94562670728157
C        -2.43571360708255    0.59116996609699    4.14859144502642
H        -2.24414458382830    1.45258477967503    3.51083417824449
H        -1.71070422155148    0.59802127733566    4.96127635390876
H        -3.42700140929872    0.70975170962363    4.57959831094425
C         1.34995502771863    1.62675010740882    2.43979597503304
C         2.69512810881450    0.94012097181569    2.67648430374169
H         2.69054159704321    0.34544149797354    3.58693209029144
H         3.47582421598990    1.69078993533224    2.76896488374820
H         2.92697790480190    0.30306971297647    1.82777423900089
C         1.45582537310698    2.59349805352923    1.26233733169686
H         1.73104286069475    2.04004112809685    0.36303741143772
H         2.21540821622770    3.34802524436075    1.45286623824436
H         0.49738885547273    3.08905283349811    1.11870709970167
C         0.93538262184591    2.43125460142802    3.68164924577137
H        -0.05674109816892    2.85449418964181    3.54101750468698
H         1.63591348690122    3.24860998558324    3.83255298117451
H         0.93827843012565    1.82806790850385    4.58647864788993
N         0.29919990362703    0.64440191919486    2.07928663354939
H        -0.56986518378015    1.20090867281604    2.04494118452629
O         2.04574029221636   -0.25535083113539   -0.13581269413477
O         1.93751262197154   -2.12040210615729   -1.31615480958573
Pd        0.00004806001005   -0.00046624464621    0.00002200024156
C        -2.57254766121786    1.23648424342635    0.72685363311317
C        -4.09502990079170    1.29634001696173    0.67465067428327
H        -4.46540323899933    1.94023550695872    1.46671594041518
H        -4.39886576882729    1.70481685820199   -0.28750298580437
H        -4.50047766481388    0.29322235369213    0.77414500457983
C        -0.12776276905057    0.43336932740775   -3.06710005163139
H        -0.97970808601171    1.11175452691337   -2.98682258869420
H        -0.12539061491951    0.01587193805093   -4.08123672410145
C         1.16167296877013    1.18490568849881   -2.85246233321689
C         1.15332164194096    2.40581399879915   -2.16899945313949
C         2.34451370291892    3.09356002729831   -1.98534121962510
H         2.33416925776697    4.03825600378870   -1.46030260859834
C         3.55051220668653    2.59167688966104   -2.44895433573705
C         3.54020598218615    1.39182008822434   -3.14042005323034
H         4.47078541988013    0.99396667436845   -3.52144278369180
C         2.36606725696234    0.68495934165834   -3.36076331964051
C        -0.12626185652322    3.00015393273884   -1.64972407667916
H        -0.81833833587433    3.20771984085128   -2.46639930688015
H        -0.61234772349107    2.31318001957837   -0.94410546846477
H         0.07458467242520    3.93750473062677   -1.13786845546244
C         4.82501658406342    3.35005412585057   -2.23060931814074
H         4.85280953541622    3.77472498817621   -1.22914420625045
H         5.69031719881047    2.70522268670623   -2.36452047743977
H         4.89860163963891    4.17096952785162   -2.94469373112283
C         2.43586387873101   -0.59136183563354   -4.14812762068246
H         2.24466229674000   -1.45267696031376   -3.51011905974662
H         1.71064368945086   -0.59858859729395   -4.96061328286541
H         3.42706801712352   -0.70983276870400   -4.57935893701570
C        -1.35013304743846   -1.62655843844748   -2.43998690527746
C        -2.69530916719426   -0.93984486136969   -2.67637702696813
H        -2.69087086114626   -0.34506071805330   -3.58675628729081
H        -3.47602819465892   -1.69049927376672   -2.76879520097983
H        -2.92701246776244   -0.30290026161623   -1.82755032442658
C        -1.45590424309646   -2.59351962140308   -1.26268699591147
H        -1.73106759096503   -2.04025184398327   -0.36325765029801
H        -2.21548528593994   -3.34802651115863   -1.45331853388353
H        -0.49746454607212   -3.08909735589628   -1.11920128899376
C        -0.93573476726977   -2.43084565792945   -3.68203452599183
H         0.05638046551367   -2.85417399518439   -3.54160872187961
H        -1.63633038153467   -3.24813306799123   -3.83300241715950
H        -0.93872046313240   -1.82748930284982   -4.58675031152034
N        -0.29926508315518   -0.64432076639728   -2.07943041290336
H         0.56970391906161   -1.20094287597332   -2.04517321456997
O        -2.04555623410680    0.25533994619010    0.13555854707358
O        -1.93779552493192    2.12012703521002    1.31631220370602

