107
CSD_code = KIVYIX | q = 0 | S = 0 | Stoichiometry = C54H45O4Si3V | MND = 4
V         4.83275443195825   10.50821381077964    3.29864581853129
Si        5.74177998327334    8.06167304613031    1.50532491363287
Si        6.29384873167437   13.28088491567464    3.88144668765473
Si        4.44923222854900    9.01247561895135    6.16322862457995
O         3.47379495792361   11.05225145256076    2.87684657353718
O         5.41161261926009    9.51971823670532    2.12195316805899
O         4.68658648259395    9.69062110999383    4.70810657421405
O         5.88798306877669   11.74704716504007    3.52985498491778
C         7.23537217917067    7.40936389042813    2.48691520501956
C         7.95353326692833    6.27805515106847    2.11502616569828
C         9.00915773297420    5.81952878777162    2.88251790451029
C         9.37128614142961    6.49199645236078    4.03729434261456
C         8.67353961942466    7.62504511266194    4.42017353462674
C         7.61451914827224    8.07143948560810    3.65216313087957
C         6.07547972079397    8.34868506736345   -0.33826566770332
C         6.08401581737624    9.64907456219997   -0.83885597670673
C         6.32755367469612    9.89360782487355   -2.17816258620767
C         6.56638235283903    8.83808021192625   -3.04235662777211
C         6.55535854674700    7.53928829932228   -2.56135671105911
C         6.31108108395219    7.30061030006105   -1.22120055887620
C         4.21735198789902    6.98483644686295    1.87387865291568
C         4.22953289087362    5.60079232849028    1.72421913660625
C         3.13391901107390    4.83640331739970    2.08378665826799
C         2.00597411624149    5.44588058466788    2.60808688343357
C         1.97356667799128    6.82293174904126    2.75712508755958
C         3.06867120188782    7.58511872609686    2.38762878162677
C         8.14671663740903   13.22807518850779    4.29323654841620
C         8.84586159027827   12.02560924636612    4.21855844523864
C        10.18711245912931   11.95283721733474    4.54799405482764
C        10.86057964559606   13.09118625580452    4.95751549294604
C        10.18601996935825   14.29889284510024    5.02555962298908
C         8.84425454492885   14.36206197030374    4.69545340627586
C         5.23551897263619   13.72939409724679    5.40141868066880
C         5.62128979531425   14.67011588904064    6.35144640902954
C         4.85373301708036   14.89999410450526    7.47908377480820
C         3.68568918910972   14.18526578439542    7.68040231327565
C         3.27992679730096   13.25376291945067    6.73920173682094
C         4.04487521162631   13.03456807059178    5.60757676357248
C         5.88109370146802   14.28794797730191    2.32278360734651
C         5.02714731732291   13.72408839875081    1.37507809668030
C         4.70618057751911   14.40731779308637    0.21545554259298
C         5.23123794252367   15.66831098094549   -0.01576459530311
C         6.07708068233539   16.24277392580174    0.91812496249979
C         6.39755565388992   15.55657118923147    2.07575663168045
C         5.44451013431894    7.39118003640057    6.17586962617422
C         5.17908598405540    6.41197795118201    5.22215980563710
C         5.93599886174763    5.25689811853511    5.15508358761515
C         6.96971357026966    5.05450425102558    6.05352539817425
C         7.23487677941456    6.00908596966209    7.02070072121360
C         6.47990130869372    7.16736696329858    7.07781671910584
C         2.58579112197076    8.71226277842612    6.32434767108597
C         2.05195223417136    7.83630701819420    7.26448852377158
C         0.68753185061641    7.62148523368034    7.34190738179797
C        -0.16697710168875    8.28207649227964    6.47475913860239
C         0.34916208626521    9.15577184919931    5.53143194828272
C         1.71438587339851    9.36926017991316    5.45734528737573
C         5.15152339766463   10.26228217194387    7.40951265261802
C         6.26507475257708   11.01704810355747    7.04795078450074
C         6.80635282917234   11.95196773320619    7.91054996171884
C         6.23847923240087   12.14786458978097    9.15811205339308
C         5.13296868572301   11.40434479267032    9.53543361464033
C         4.59635167655787   10.46994605552082    8.66770680574384
H         7.68641878183860    5.75414377913836    1.20895415468656
H         9.55341831084141    4.93653314978893    2.57896076303002
H        10.19595910116923    6.13459062050141    4.63671945094574
H         8.95087243831958    8.15528244741673    5.32024301824150
H         7.06067978719453    8.95255387064149    3.96055937738162
H         5.89138480382038   10.47272724467163   -0.16102986236735
H         6.33120991362927   10.90835373693321   -2.54976363200882
H         6.75757878475587    9.02598191352356   -4.08901819179624
H         6.73604723868124    6.71286682575558   -3.23387457658963
H         6.29541691323189    6.28480213924424   -0.85457287585391
H         5.11193930366897    5.11696407129232    1.33108300746834
H         3.16087398849008    3.76269211058932    1.96286561676562
H         1.15472751127721    4.84860631767366    2.90088473800763
H         1.09763731777495    7.30335524970115    3.16859276654906
H         3.04153702282684    8.66601044781074    2.50400417802722
H         8.32691388534995   11.13514353428801    3.88750744291540
H        10.70816304798196   11.00801652208089    4.48336562137400
H        11.90776394619851   13.03949415079225    5.21833489767159
H        10.70849796218762   15.19215587754503    5.33724661965614
H         8.33008514840316   15.31031240932928    4.74796652167002
H         6.53846705973940   15.22276513911549    6.21352210501666
H         5.17166201468908   15.63268237309846    8.20707721036355
H         3.09332633677899   14.35418306349865    8.56784551246629
H         2.36768173146475   12.69386047845301    6.88787546884045
H         3.72066850764443   12.30720588335202    4.86754171827655
H         4.60989855410713   12.73588026933874    1.55734127298983
H         4.04339182714496   13.95621243459923   -0.50896734831298
H         4.98183477792596   16.20268716504035   -0.92114661674231
H         6.48809346472183   17.22664676655476    0.74221567850944
H         7.06126908721639   16.00970126898783    2.79703478881483
H         4.36874670571689    6.56337095258734    4.52392972647416
H         5.71896343104935    4.51662045412082    4.39871264480391
H         7.56633664060874    4.15536956121026    6.00136409389173
H         8.03671600945587    5.85250384468333    7.72834198221026
H         6.69565199031071    7.91357078793522    7.83018661186855
H         2.71862126586460    7.31391946560709    7.93622404970065
H         0.28843129426142    6.93669340440983    8.07661436012308
H        -1.23282885723673    8.11376393182681    6.53288504316613
H        -0.31439427469399    9.67122871919096    4.85181503532928
H         2.12171604672023   10.04690339399704    4.71366170326286
H         6.70781424978459   10.87222220094203    6.07071001693886
H         7.66792095340240   12.52952816426482    7.60660274555025
H         6.65502972254615   12.88027769267827    9.83410922864135
H         4.68699213247829   11.55614985534740   10.50796651422095
H         3.73101946381398    9.89453851481279    8.96399954101383

