44
CSD_code = KIWCID | q = 1 | S = 0 | Stoichiometry = C14H26N3Pd(1+) | MND = 4
Pd        3.95700086791351    4.32538035681103   -0.22017524913016
N         3.56092868725951    2.30704028764681    0.21278643527179
H         2.92618136289581    1.79487307818719   -0.40262784603663
H         4.44650494490447    1.79545123684240    0.24856900038316
N         4.29345385364068    6.34119187320516   -0.60149203166198
N         3.13037092150902    4.27411412459099   -2.32813044535158
C         2.99173399553748    2.39988439990917    1.57720813042173
H         2.83170310336860    1.40191224718073    2.00927950849656
C         4.00182731488908    3.19010130237146    2.37239526783539
C         4.66452575864473    4.20974691518784    1.67729718082095
C         5.68020551116850    4.89521126787105    2.32247747014336
H         6.27105512397635    5.64994895170090    1.81866495907707
C         5.98720201111884    4.61481014925162    3.64898527128209
H         6.77849403434205    5.16375860468224    4.13648354219820
C         5.29155313177354    3.64094245658732    4.34019543887409
H         5.52985293642081    3.43337334188552    5.37137118545932
C         4.30626279409613    2.91308507885909    3.69583938522123
H         3.78061053598274    2.12544417677882    4.21519605743983
C         1.65848886865588    3.14613558484520    1.49894115253481
H         1.82848051921908    4.14237568701991    1.05328042360865
H         1.25169790352483    3.27907903097203    2.49761326981289
H         0.93305517104880    2.59408911140466    0.90298103441143
C         3.40445912077193    6.65710393025776   -1.73624179047570
H         3.66659440928692    7.63980464517786   -2.15402451717198
H         2.37969705416995    6.72052185651904   -1.35522052585264
C         3.46876055080976    5.60828774132632   -2.84649262663251
H         2.78377396107184    5.90071493870840   -3.65512536324462
H         4.47731073140510    5.57781341235640   -3.26642675905897
C         3.73335499681336    3.24346780949833   -3.17690956707183
H         3.41650859110176    2.25336704625081   -2.84865751450441
H         4.82293892043695    3.29723246273747   -3.11152515280247
H         3.43480742034873    3.36466268176864   -4.22546403728136
C         1.67648772876611    4.09563113099898   -2.29356343879726
H         1.21701681906582    4.83359617192122   -1.63323725428773
H         1.43001196565621    3.10078773178921   -1.92122011130616
H         1.24005309156524    4.20339189728290   -3.29496493501518
C         3.96358803967711    7.25353106387308    0.49930829386847
H         4.62357621139341    7.08163425482382    1.34695447200379
H         2.93599334681240    7.08448018085059    0.82854612823920
H         4.06583620948720    8.29706462058329    0.17983225629867
C         5.69748444822663    6.52511247818253   -0.98810188423266
H         5.86311681647105    7.53303468241534   -1.38733772224186
H         5.99043752629882    5.79018599549488   -1.74163314230612
H         6.34100268847385    6.38902400338769   -0.11993394923789

