47
CSD_code = KIWDEA | q = 1 | S = 0 | Stoichiometry = C15H28N3Pd(1+) | MND = 4
Pd        3.71160065112842    7.77223040474392   14.62519596971846
N         4.21227056615149    5.77288091451568   14.89970974085765
N         2.80426569655626    7.61664182002951   16.70187143239756
N         3.15525963876210    9.77289857105857   14.30312153781135
H         2.45595218166245   10.18551901723589   14.92330639014819
H         3.99346905008725   10.35884673319305   14.33739035776190
C         3.31581060452224    5.30985614108134   15.97617144448809
H         3.65014457956356    4.32941746900455   16.34489820312881
H         2.31504621688577    5.18163124187290   15.55059798172003
C         3.24610667960567    6.28740405231520   17.14959100554724
H         2.56419409824498    5.88264066243962   17.91109292876723
H         4.23289968359196    6.38110235224750   17.60992127601195
C         4.00439003648165    4.90731733344858   13.73352444460121
H         4.67500195160961    5.19156126842804   12.92540177628268
H         2.97794678191598    5.00666854465834   13.37388270390359
H         4.18937207604711    3.85851565923549   13.99289911475925
C         5.61256199311596    5.68840838766012   15.33103748673673
H         5.85445993538406    4.67514943037230   15.67408518369436
H         5.81140137006077    6.39593562586516   16.13946681691407
H         6.27075374557776    5.93698054980280   14.49956539500073
C         1.34235604616696    7.66476593188719   16.61627288915242
H         0.88101191846202    7.44797796698796   17.58834543943905
H         0.97845135762884    6.93685215225579   15.88881714215581
H         1.01856934187861    8.65695982356455   16.30048599217660
C         3.27598387469592    8.63848455269147   17.63950189457899
H         2.88072057664658    9.61544888951341   17.36061922469943
H         4.36730836947731    8.68825479938561   17.61826727764279
H         2.95072993888503    8.42100765313294   18.66429961925586
C         2.64635310907670    9.72385382687104   12.91306756869199
H         2.41746772154284   10.73145409115941   12.53820024021419
C         3.74733788103266    9.07388703980336   12.11329421278821
C         4.47217746422622    8.06995246443256   12.76727185195845
C         5.56074752412786    7.51197051064108   12.12331688187854
H         6.19260555981028    6.77581675102841   12.60583030582118
C         5.90491967682235    7.88803549381702   10.82345808428441
C         5.14233234585233    8.85000962718014   10.17780009580840
H         5.39549579061446    9.14510173456770    9.17123009991099
C         4.07897759569757    9.45431744411430   10.82308472275158
H         3.51156732243016   10.22852501677994   10.32804416779959
C         7.06790247873210    7.23876395514950   10.14110913076578
H         6.76013616288243    6.28706831440291    9.70674240340875
H         7.87514120988628    7.04193518078420   10.84309992394999
H         7.44509184605833    7.86667926566699    9.33892068098541
C         1.37987248190969    8.86620864666013   12.88914049838832
H         1.02512322489515    8.76285367927044   11.86743064185091
H         0.58672936188007    9.31644234267903   13.48465247304266
H         1.61828228171739    7.86176666636302   13.28156534636137

