86
CSD_code = KIWDAV | q = 0 | S = 0 | Stoichiometry = C43H34MoN2P2S4 | MND = 7
Mo        4.97772404989171    3.72167296384029    4.23476654103748
S         3.68702821815911    4.17814392300923    6.39093370337568
S         7.09648939983519    3.06463119478552    5.31712902779539
S         4.12784322682680    1.60760305368194    5.18505095566280
S         6.56273775248722    4.75278698437501    2.33173234873745
P         5.90858890792092    5.79761073095550    4.96065740685024
P         5.58541310866755    2.14128490297847    2.55275478647065
N         3.67019642054988    4.34460456672099    3.24374798293064
N         2.78572347308315    4.83357513598351    2.46315608591017
C         1.44161810844386    4.47574337341210    2.60625684914506
C         0.47349114150040    4.90090907717190    1.69736529044807
C        -0.84241985762536    4.50859220952298    1.86305408678187
C        -1.21179542229330    3.69656855057503    2.92167500876580
C        -0.24985972043320    3.27578562879438    3.82719786034197
C         1.06691743432198    3.65818814593197    3.67656883916847
C         3.21513337484334    5.70898430443887    1.38552846055061
C         4.48491302895135    5.44598300222657    7.26812982481197
C         4.11494274437566    5.72895731428788    8.58377103330598
C         4.73290630069513    6.75434712452315    9.26792281712623
C         5.72321555665555    7.52006671038346    8.66268969756242
C         6.09565912615962    7.25328324437217    7.35979369971332
C         5.47849552660898    6.22025287135259    6.66311503866575
C         8.19623096131499    4.41388971932567    5.24741447314358
C         9.56550774255294    4.21528790230962    5.38960989415116
C        10.42628011948461    5.29353791107516    5.32778825250431
C         9.93878225407513    6.57844855287964    5.13534665188392
C         8.57760774464605    6.79138050907257    5.00133772757341
C         7.70579001666613    5.71178410988165    5.03992213877786
C         4.52179674955251    0.24880508626797    4.16321798452007
C         4.17278518164910   -1.04378582904475    4.55155486555863
C         4.45686454141562   -2.10904622717207    3.72125857098680
C         5.07457838630865   -1.91210320476192    2.49109959219295
C         5.43049473549816   -0.63649333245044    2.09724231347940
C         5.17245565819995    0.43790873995040    2.94255965033035
C         7.80460827187081    3.52359912854454    2.18310949444945
C         9.14837914559072    3.80856769586379    2.01866301018725
C        10.04960311015560    2.75746221748616    1.94429706265861
C         9.61936004862373    1.44391921850400    2.03629735697460
C         8.27098410475435    1.15273635295450    2.18917567670564
C         7.36212070472032    2.19530057954350    2.23928292348851
C         5.38670688251864    7.26242217071808    4.04083290265847
C         4.08266214045262    7.68194087076110    4.30458551377632
C         3.53362456478254    8.72774238519765    3.58906020155081
C         4.27966664301393    9.35640159905701    2.60297793476378
C         5.56819685901602    8.92970935197229    2.32778034319704
C         6.12515228642690    7.87933196182888    3.03698904779913
C         4.75565572576800    2.37392909874782    0.96383000476430
C         3.37502414455245    2.18465891572023    0.98922841183566
C         2.62742089473682    2.41002972111227   -0.14991761562119
C         3.25784433343426    2.81834778529932   -1.31681207501458
C         4.63160054344243    2.99675498844062   -1.34400688032898
C         5.38724770055205    2.77940881647565   -0.20444091455684
H         0.73509480224294    5.53065929342326    0.86264099242761
H        -1.58583878685460    4.84268936365090    1.15397614705628
H        -2.24141852271206    3.39614247589550    3.04157434882676
H        -0.52516068805935    2.64615621396340    4.65938341708816
H         1.81521650533700    3.33560511546837    4.39063915118170
H         2.71137247461791    6.67411749159730    1.45725120859066
H         3.01341323542048    5.25194364189502    0.41447030739329
H         4.29059915350496    5.86116369106080    1.48653440810307
H         3.34612150343897    5.13025281510455    9.04686662812164
H         4.44517004345888    6.96180033760134   10.28818716497332
H         6.20266349082311    8.31804817059679    9.20929099234943
H         6.86616636031117    7.83738005273066    6.87559995501712
H         9.93494712553953    3.21277113713131    5.54462879312676
H        11.48922661584046    5.13226184110634    5.43237504281898
H        10.61942232374738    7.41576625832231    5.09230064345998
H         8.19313367892177    7.79201750435639    4.85916966127525
H         3.67789702227118   -1.18960957229523    5.49911791421332
H         4.18483710902119   -3.10843930704195    4.02751490432628
H         5.27198235280593   -2.75304394164087    1.84334711957075
H         5.89326249150763   -0.45775213544036    1.13509659043579
H         9.47921820847592    4.83493298800695    1.97415571417614
H        11.10237335894444    2.97160529390968    1.83418083112309
H        10.33733984504784    0.63821411458481    2.00214911736790
H         7.93565971956681    0.13022596002399    2.28602134920444
H         3.50744094795888    7.17342092316105    5.07068105119459
H         2.52449793944946    9.05287772625367    3.79668183965643
H         3.85292833772039   10.17678304924055    2.04469163371782
H         6.14318554737702    9.41402438019036    1.55218984870749
H         7.11890667945738    7.52876212201130    2.80036989762125
H         2.90082251509163    1.86447283479882    1.91188089857832
H         1.55600695737813    2.27330795505209   -0.12781783884646
H         2.67482796739977    2.99639210975105   -2.20859292127783
H         5.11719223876321    3.31108704531566   -2.25617872681955
H         6.45839735066571    2.92871124132154   -0.21745994447145

