79
CSD_code = KIWGAA | q = 0 | S = 0 | Stoichiometry = C34H41NO2Ti | MND = 5
Ti        4.63420265202275   11.54795669993699    8.39704769827116
N         5.03860650621023    9.35612720187729    8.58554957445813
O         2.97980761059351   10.84575362335351    8.96182726323641
O         4.09103879722846    8.69682727854964   11.04195366651545
C         6.66546003550366   11.74037753914697    7.92202347468618
H         7.35211313863521   11.67454843202350    8.77716627839219
H         6.87550971487561   12.70694015826138    7.43877139618609
H         6.99620882772307   10.96860353689565    7.20902070969842
C         4.46242465266749   13.43885565376086    9.26380928619009
H         4.02613225856651   14.16697107294984    8.56471357050429
H         5.42470204134521   13.85060621956076    9.59373773612547
H         3.80820969313646   13.39949232208350   10.14592808304530
C         4.05253619786023   11.83375312646823    6.40366388656431
H         2.96757130458174   11.78602113044013    6.25784141698780
H         4.50510287963350   11.02365382876727    5.81256452577861
H         4.40800858625979   12.78836412251164    5.99643106589907
C         2.25324200547095    9.99757428288266    8.31395182463758
C         2.84943735375896    8.81458544284742    7.77246696722439
C         2.07018789077819    7.87606996309605    7.08010177559011
H         2.55284741987312    6.99377336729323    6.68118685559662
C         0.72583235218275    8.07419413449857    6.89486537452842
C         0.13700748960581    9.21777867591934    7.45355077969584
H        -0.92498064474432    9.33410302692041    7.30560897895739
C         0.83844851117059   10.16487522694026    8.16529811629974
C         4.21056100643639    8.50999546294626    8.08558981569379
H         4.49959573860177    7.45349466598091    7.99053372609418
C        -0.12402586184665    7.10221273753264    6.13160871111855
H         0.46252690116276    6.24644455537420    5.80743719616728
H        -0.55199416239358    7.58117814602933    5.25137235689518
H        -0.94757678111999    6.74589390024417    6.74944799354608
C         6.26726041076554    8.94136856820706    9.09022281559525
C         6.65908924180228    9.46453690102234   10.33518294696910
C         7.90297012898926    9.12143272594372   10.84738343748210
H         8.20240165064690    9.51636974171300   11.80772907441293
C         8.75096755979379    8.27729328861485   10.15010688714308
H         9.71680728666492    8.02419583640528   10.56087728332459
C         8.36101162827824    7.76304203285524    8.92508626382330
H         9.02332418540419    7.11067058498835    8.37528979217140
C         7.12443118044131    8.08838115789052    8.39862408365743
H         6.83123078055181    7.71614590793467    7.42637651175234
C         5.75767999377726   10.36220754034745   11.09165501116711
C         4.45208945213724    9.95214915987818   11.43559552211105
C         3.65141635914167   10.78919278481665   12.20577843039644
H         2.65392128422190   10.48892746927614   12.48622931472110
C         4.13280818784058   12.01300373737087   12.64188539045233
H         3.49555372303784   12.64689388774283   13.24121350173101
C         5.41890894770558   12.41297028049522   12.32962726183749
H         5.79679523873185   13.35986255579218   12.68448216712045
C         6.22182391911219   11.58809559378436   11.55869950674849
H         7.23448233518456   11.88708126743828   11.32417787757830
C         2.78959704812846    8.24414975090555   11.32913654483134
H         2.72321897199324    7.24775112539209   10.89406003266850
H         2.03159184170717    8.88569687655578   10.87013734254774
H         2.61696381184344    8.17833433437775   12.40872847626030
C         0.16157541099841   11.39148504107782    8.76887669065394
C        -1.35922655881652   11.39378338750499    8.55839693142511
H        -1.58746191733000   11.38898205916663    7.49024335318254
H        -1.79959672320785   10.50228823939927    9.01196665563044
C         0.43088844115153   11.43473045055246   10.28238921734910
H         0.01317698350346   10.53632284794075   10.74847310383689
H         1.50827404743372   11.45199525132629   10.45534501462651
C         0.73076161273084   12.66675175747947    8.12402837989771
H         1.81629757223247   12.70038995614267    8.26313260605536
H         0.52037481420285   12.65000813061336    7.05064477521138
C        -1.98917920533165   12.63755953332569    9.18702242012328
H        -3.07305577006064   12.60805228201343    9.02125305175552
C        -0.19493561520089   12.68113158849798   10.90358343411723
H         0.01996691811173   12.69210130656377   11.97926093930003
C         0.10228311705557   13.90796506356791    8.75533976682201
H         0.53041124700698   14.80140045695432    8.28652391401823
C        -1.70585403046208   12.66194813808145   10.68668938120815
H        -2.16214908018982   13.54598364744334   11.13850170290995
H        -2.14098745809866   11.77995944634998   11.16350962329751
C         0.40354679528162   13.92642900507285   10.25264215987948
H        -0.01863935114177   14.82566292993327   10.70820061568321
H         1.48452450396854   13.94161624399637   10.40927048203895
C        -1.40899520025919   13.89137886169304    8.53744477880443
H        -1.63215399867595   13.89489687532925    7.46788047411467
H        -1.86243583833154   14.78319885539012    8.97672494665867

