63
CSD_code = KIWHII | q = 0 | S = 0 | Stoichiometry = C22H24LaN7O9 | MND = 10
La       12.60985808761248   -0.34062967076227    3.51379449022421
N        14.58206006793836   -1.52929695872422    4.64266969034141
N        14.84605295505399    0.21670183337064    6.10469278239222
N        13.98351435107758    0.94262629988013    5.35289167832520
N        10.38029285871145    0.86745615522333    2.91464021623134
N        10.91785769624906    0.83049946707923    0.68264726547200
N        11.80313801700111   -0.16853381328329    0.94391293028710
N        13.93820028085826    1.25604805759387    1.89233043708907
O        13.09737795810966   -2.47763132028748    2.63685678978363
O        14.19556487197931   -4.41442699135934    2.66401054878617
O        11.20474693226612    0.19201718319457    5.34377461526784
O         9.42035119337982    1.13027743893005    6.29809063177280
O        13.01178849525841    1.75249628217419    2.54459235265588
O        14.48217556580388    0.24093046030863    2.33205042688826
O        14.30948021983206    1.76712139843542    0.87301735468994
O        10.51081937946841   -2.14577580489480    2.87785269031134
H        11.31174851413725   -2.68604479477450    2.70141436776692
H        10.09456482051856   -2.03844971422730    2.01488904757639
O        11.95965252336455   -2.33220752501093    5.43534803504184
H        11.22112151625968   -2.84292423446786    5.08152408120325
H        11.54918194019391   -1.60292147613365    5.93377831057615
C        14.01230560198897   -3.26871011855740    3.03564157917399
C        14.96020803810752   -2.67575833522565    4.08820284489246
C        16.13857680329029   -3.32276275983041    4.44035182925961
H        16.37853198760888   -4.26159618643693    3.96795875946162
C        16.96566730961445   -2.72010134321350    5.37142739670789
H        17.90927743560104   -3.16863765442095    5.64514537828024
C        16.57908416662233   -1.52133520558284    5.95078540893137
H        17.22710860344979   -1.02071591673010    6.64861625857523
C        15.35496404062500   -0.97301110530413    5.57300309914590
C        15.85387879283585    0.23654380107713    8.42950412025082
H        16.91128574447275    0.47491292584465    8.31159876837712
H        15.73904133612340   -0.84402728473183    8.48548191520676
H        15.51808028832812    0.67438687174527    9.36638321821510
C        15.04207510185211    0.80207361802422    7.32127750619973
C        14.28915013724242    1.95098256389583    7.32286887948487
H        14.19726663817087    2.65841613104575    8.12142667201338
C        13.64655401588751    2.00042810681837    6.07055713553742
C        12.71607486280553    3.04696275672709    5.57997639801581
H        12.59405821304122    2.96448167681130    4.50204287985678
H        13.09042290919559    4.03601207072913    5.83799451645305
H        11.74332552226394    2.91533938361926    6.05409595478171
C        10.10097402860402    0.81478386934557    5.33577627630597
C         9.59471474755343    1.20121458931953    3.93350240160739
C         8.38419823085610    1.86094577472577    3.76199901243056
H         7.80110233815967    2.11050197483590    4.63361804577226
C         7.96995340621304    2.14782032733609    2.47347194463560
H         7.01875362205931    2.62564357017854    2.29109020495992
C         8.78625856219094    1.80909611105440    1.40596990668822
H         8.46427134650347    1.99523675628976    0.39688966501722
C        10.00744115001035    1.19313235874316    1.67714364490255
C        10.42285625758772    2.52185468092494   -1.14222063037904
H        11.04118662288895    2.93812316719156   -1.93357620191032
H        10.25748379628046    3.28863911236654   -0.38824301647500
H         9.46528627633707    2.23882140140024   -1.58072349015832
C        11.12768814554463    1.35067898780487   -0.56255631354510
C        12.15552504299628    0.62956014698703   -1.11568147079630
H        12.59405574209325    0.77026616476536   -2.08154273922383
C        12.54774800095457   -0.30892246913186   -0.14154295017201
C        13.62271741612190   -1.32123465427970   -0.26232821278421
H        14.59154637916359   -0.82580215137796   -0.20616790904332
H        13.55555428958601   -1.82769872093861   -1.22317317758200
H        13.55499880404549   -2.04427726612569    0.54667574831254

