53
CSD_code = KIWHOO | q = 0 | S = 0 | Stoichiometry = C22H20CdN6O4 | MND = 6
Cd       11.95265306812381   11.61571477651243    8.32071809192573
N        12.91441271930627   13.52521333147684    8.07883756364478
N        14.38442393762712   12.53033172369718    6.65749397678633
N        14.08055198332945   11.36786491891058    7.27803305032525
N        10.92280869394733    9.73825221324357    8.53138586330890
N        11.27535673361808    9.87227493884627   10.77387170994083
N        12.31449300010683   10.68811441124993   10.48515369315322
O        10.72669705999331   12.97204203370985    9.48561198276054
O        10.86831672069716   14.93874298864581   10.53470995723063
O        11.29692930775351   11.14807893431806    6.30803451607956
O        10.71284952892482    9.39040522845257    5.05977888932793
C        11.19482671574909   14.12352045566461    9.68815790307928
C        12.36068205953234   14.52881534033116    8.73594239637096
C        12.82256360038957   15.83135323377338    8.58064064804109
H        12.35060559462324   16.62887712388254    9.13124356308296
C        13.88509896738846   16.04716723353514    7.71846907982809
H        14.27740782038946   17.04325022237668    7.57371594072583
C        14.46475789025816   14.98229283409354    7.03978485843535
H        15.31237048232995   15.14407233124969    6.39686806817112
C        13.93021763426994   13.71313457807215    7.24466055246161
C        15.39033257874964   13.33941479499592    4.48354581307947
H        15.57114567915968   12.87269953847433    3.51884389786575
H        16.31045875382983   13.83309012783021    4.79780793128563
H        14.60855814129773   14.08809863755243    4.36841725966857
C        14.97938969558599   12.29253323361986    5.45200676988244
C        15.06108908986642   10.92740931916511    5.32329121678635
H        15.46386095869399   10.38306303813708    4.49396912299677
C        14.47678048726477   10.39142511451979    6.48717804299231
C        14.27281260605723    8.96571317993470    6.84342773683369
H        13.94646026020832    8.88974251618430    7.87998735050940
H        15.18882274106448    8.39578146863858    6.69979382250625
H        13.50281841054051    8.54416242161196    6.19718165351245
C        10.85034410238794    9.98641076585339    6.11511628349233
C        10.45061062940261    9.21913094943712    7.41193506975963
C         9.67663205984520    8.06378466284906    7.42605184387797
H         9.30637881038323    7.66405169278640    6.49595192657837
C         9.41749977394939    7.46833084880885    8.64963937861884
H         8.82514305630712    6.56652458248398    8.70368651411492
C         9.92711163224060    8.01880502160658    9.81918773403496
H         9.75570348731849    7.53758526583175   10.76629463141375
C        10.68082784864379    9.18467847392555    9.71376539837390
C         9.77006591869922    9.29799876042289   12.72235911072851
H         9.54113286169604    9.78710571431192   13.66549995153087
H        10.01299474846888    8.25590265151470   12.93240665739517
H         8.88720857976565    9.33432907510131   12.08659897691162
C        10.90974497308856   10.00148189845729   12.08283282790235
C        11.76431157706220   10.92487269903324   12.63405231018425
H        11.76202491820810   11.28003587948771   13.64408283264830
C        12.61976095252734   11.33336246144593   11.59256358083269
C        13.70607969823702   12.34295391449782   11.63460244288512
H        14.27965762284342   12.30329959010589   10.70930597111574
H        14.36209132705079   12.17075394351363   12.48579359026366
H        13.26602250117284   13.33494890581120   11.73711004472247

