48
CSD_code = KIWJOR | q = 0 | S = 0 | Stoichiometry = C22H16MoN2O5S2 | MND = 6
C        -0.85275306471959    8.15434727766770    2.41621104852983
C         0.93587983497205    9.04868234802676    1.38725619208319
C         1.13663091550743    7.69896895114135    1.47176628679967
C        -0.10140751525076    5.77765020715503    2.38943662464024
H         0.32889304672087    5.53869512961690    3.36458858834495
H         0.43343264739561    5.20778941816147    1.62846095751946
H        -1.15462965451473    5.50086454739353    2.38431450814359
C        -0.88251162040452   10.60550351951303    1.98362957026232
H        -0.58324651115296   11.13727937072092    2.89051014697570
H        -1.96801851970693   10.52548599562102    1.95638308019373
H        -0.53747697944816   11.17390061846809    1.11868845919182
C         2.28671145864240   11.28886690053589    2.12782842732374
C         2.17605055541275   10.79212243757616    3.41752525363645
H         1.89001069213841    9.76463801627949    3.59083118893235
C         2.44030920491347   11.62534357721777    4.49015778726809
H         2.34418678194408   11.24007899816926    5.49397186487145
C         2.82712982056368   12.93799523416375    4.28019299842893
H         3.03149913235348   13.58198328234428    5.12163951038873
C         2.95443207660983   13.42116987682934    2.98786405722366
H         3.26135877132628   14.44191329310935    2.81713451558103
C         2.68081651793950   12.60154328416218    1.90897480670506
H         2.77038027114447   12.96833673755652    0.89767293413857
C         2.82863623552266    7.46721576457732   -0.63526699692346
C         4.14632841209009    7.69507144103411   -0.99680006670703
H         4.94055619953642    7.45118758036243   -0.30804757150045
C         4.42409284904450    8.23998538352884   -2.23765923852910
H         5.44926007593984    8.42358293308396   -2.52162955403038
C         3.39285650092252    8.55578775520358   -3.10591169366952
H         3.61160537020991    8.98809166661836   -4.07044168153651
C         2.07919335125397    8.31406936891268   -2.73852754961316
H         1.27277373893076    8.55119810975509   -3.41592559073965
C         1.79030149663683    7.75902955129398   -1.50594217129236
H         0.76695021106887    7.56207239471015   -1.22162568122047
C        -3.34717804307342    6.42972735718878    2.73976768207244
C        -1.60338751980507    6.84905223093619    4.94347239687174
C        -4.13827222458403    7.84427204306005    4.91789867911172
C        -1.99462576585369    9.54137279107092    4.72015889111518
C        -3.76336304534590    9.08088265171042    2.53895300398848
Mo       -2.61503827318920    7.98299346064249    3.69731176044481
N         0.03233566655108    7.17855434606027    2.10165400771770
N        -0.30340883708630    9.29239511879924    1.94000565594756
O        -3.88563575443910    5.55249045345671    2.24582757599822
O        -1.10214850121429    6.20213908511430    5.73877782018981
O        -5.02337889712379    7.76201570303976    5.63227823890599
O        -1.69021895495959   10.42380331918134    5.37734827301852
O        -4.53917845874878    9.66818111770798    1.94123908944045
S         1.96081806181359   10.28415758569572    0.68840676491050
S         2.50024824349987    6.73081176584347    0.95713914884693

