109
CSD_code = KIWKOQ | q = 0 | S = 0 | Stoichiometry = C49H51BN4OP2Ru | MND = 6
Ru        5.16955286588892    2.00431490892167    3.09767662955091
H         5.69195053784650    3.30332902692173    3.73331210890225
P         3.31225588901476    3.14811501404201    2.29052787650565
P         6.99006439974656    0.98181069684148    4.10675425737615
O         6.77710889826523    2.43290329175629    0.61478679661132
N         4.27734372274144    0.23714196155502    2.35065921522415
N         3.51467587157511   -0.61119458048012    3.03472948168264
N         4.11487902369741    1.69681238507530    4.88280953754510
N         3.46083018152364    0.59907393703854    5.25667613281303
C         6.13432390114499    2.27349146096014    1.56372177689066
C         4.15925720365538   -0.06537925200226    1.05901335426304
H         4.68919850611619    0.47985806200184    0.29952516153767
C         3.29544631962276   -1.14257634162793    0.90300926414673
H         2.99432507273133   -1.61413380162633   -0.00987399407603
C         2.91129587377120   -1.45624078038180    2.19115321872372
H         2.25688584721595   -2.22341349395436    2.55234407501000
C         3.90395080416031    2.62904852167131    5.81015214934827
H         4.33136841367618    3.61086381667105    5.72047953076962
C         3.09647923925796    2.11699676243856    6.81700259698016
H         2.74988174505199    2.61716434562741    7.69796444300030
C         2.84037350160582    0.82054328631700    6.41904073933006
H         2.26283113934405    0.05157168155869    6.89101659745179
C         1.90974562893960    3.15605371171238    3.45015227300741
C         1.55213341047471    4.28805404050830    4.17338196857687
H         2.06300216980954    5.22384373407040    3.99403537753053
C         0.55233781780766    4.21876196224166    5.12601340364875
H         0.28355531087023    5.10767321876594    5.67957566797296
C        -0.10254037402203    3.02341071774126    5.39135385460484
C         0.27239516091885    1.88850625066057    4.67982815435299
H        -0.21450538064163    0.94550211864210    4.88511753324705
C         1.27013218634309    1.94824935723948    3.72875786948223
H         1.56920386408705    1.04691028189470    3.20966969061272
C        -1.16418360528540    2.93729481765836    6.44398807010740
H        -2.01252929621987    2.35427530849449    6.09025481405045
H        -1.51090716747003    3.92672727978519    6.73177307431868
H        -0.76596118311563    2.44196264037137    7.32987129092514
C         2.56087372740852    2.58225279294173    0.71719071161676
C         3.38314565128361    2.70124363082674   -0.40353645935348
H         4.37690949922200    3.11560004249747   -0.28310742976660
C         2.94268856121729    2.30179894031640   -1.64660694732440
H         3.59340985949578    2.39619641329519   -2.50462523760281
C         1.66571270877360    1.77099221052426   -1.81040466670595
C         0.84293528543184    1.67776572077455   -0.69811720823415
H        -0.15804886486379    1.28341297965969   -0.80649693776942
C         1.27778309035527    2.08156758711050    0.55324078944121
H         0.60274299917926    2.00946992676415    1.39333189755442
C         1.20011997312504    1.32968344558680   -3.16387927342009
H         0.22599696827775    0.85072805761776   -3.10518300621334
H         1.90998658940430    0.62841590375955   -3.59992454468067
H         1.12558736807250    2.18560614696946   -3.83438496183262
C         3.44695295272842    4.90465623196731    1.81471554109419
C         4.66599165687703    5.56583276515695    1.85588478837337
H         5.53598173041872    5.03508003451574    2.22034866322896
C         4.75998042052960    6.88115626941169    1.43753654927003
H         5.71496169481440    7.38628971339876    1.47177138731521
C         3.64335137509728    7.56153100346365    0.96926149722033
C         2.42436304864451    6.89060187289400    0.92509733468659
H         1.54713250050059    7.40536192947824    0.55850756302681
C         2.32421542111843    5.57719714914501    1.33531467203818
H         1.37307303502132    5.06333915633054    1.28615488518721
C         3.74059529147760    8.99262383237680    0.53761196824328
H         4.74417125312479    9.22594748027334    0.19023212816718
H         3.51292011430939    9.65016651203288    1.37750358026302
H         3.03064218424127    9.20730050259923   -0.25793365459818
C         8.64166633625320    1.54473146103910    3.55810425760813
C         8.80633442877768    2.84702405310484    3.09476616434698
H         7.94451472458421    3.50022840523783    3.05021998955834
C        10.05002510428047    3.30002668546930    2.70196662644071
H        10.16223965806888    4.31296864074119    2.34170059260770
C        11.16352059671306    2.46837192201253    2.76000118697115
C        10.99665978172469    1.17307115468668    3.23211189129499
H        11.85048191813200    0.51234199186438    3.28968010473890
C         9.75469985262453    0.71361098540626    3.62982104162265
H         9.65208179634663   -0.29884199037628    3.99369339947842
C        12.50312086379680    2.96193714972462    2.30675322356828
H        13.29713753574288    2.29778445786532    2.63890489078151
H        12.69480546933225    3.96210345141313    2.69077711594202
H        12.53164976276390    3.01243713112593    1.21813145926531
C         7.20253860054044   -0.81645338139803    3.89473935273042
C         7.00833928127218   -1.28976912986339    2.59978299774996
H         6.76578373921540   -0.58362227090221    1.81425847712425
C         7.12511261025296   -2.63513982023369    2.31844528550461
H         6.96021798838790   -2.99036036962371    1.31077981526943
C         7.44778287632293   -3.54225788611222    3.32223611106746
C         7.67397918234931   -3.06011855086491    4.60545524492025
H         7.94399640763395   -3.75072741854579    5.39256818942263
C         7.55795490735569   -1.71277956077436    4.89520515977876
H         7.74716354411843   -1.36179090195181    5.89985293544234
C         7.53213137460944   -5.00820941947605    3.02636798531225
H         7.90547080864243   -5.17958139194860    2.01904549902194
H         6.54032692183724   -5.45622080249651    3.09733011310247
H         8.18236194507942   -5.51332304434881    3.73686620536091
C         7.10772319053310    1.26677891757259    5.90296362148777
C         6.30756693687984    0.54556373631353    6.78659045507837
H         5.67299611175582   -0.24615586632993    6.41592923590318
C         6.31617703593707    0.83751901997063    8.13610986909950
H         5.68932976325437    0.26768880614655    8.80792835498186
C         7.11283627835048    1.85830861865063    8.64208060133518
C         7.90115633656169    2.58165070057336    7.75597617831178
H         8.52455660485735    3.38211473051643    8.12981287572289
C         7.89748794814638    2.29718590984622    6.40350623756271
H         8.51131666020775    2.87842747399013    5.73005027143379
C         7.09681289862751    2.18475989122947   10.10405882119097
H         8.00526976829054    2.70559230167095   10.39716670196616
H         6.99737591372839    1.28123419615642   10.70190401036429
H         6.24743408135142    2.83044683169595   10.32968304199632
B         3.54116555502537   -0.77781516780680    4.56443085731719
H         4.58078513729836   -1.31061987789934    4.85393728605360
H         2.58887816598424   -1.41506637476376    4.89184864416712

