75
CSD_code = KIWMEK | q = 0 | S = 0 | Stoichiometry = C28H41NNiO2P2 | MND = 4
Ni        1.79950551272680    6.27678739467800    2.71093603889094
P         3.55256006941297    7.45874985409100    1.64762000061816
P         0.13787235845452    7.56720415991632    3.82337514810818
C         1.03310617347775   10.14121646022953    3.26112324666316
C         1.25124152336446   11.48986738343912    3.54774168053602
H         1.87190447020215   12.08123362266118    2.89283102853666
C        -0.06543468746909   11.31482714402000    5.56008950923940
N         1.52771831284347    9.50975740960951    2.15429496495998
C         3.03644353108544   11.47834905085042   -0.56535633911848
H         2.90069681749236   12.42338097921372   -1.07160808978701
C         2.81067776309358    5.41767139228067    3.91689623211874
C         4.18153463417308    9.39417319548485   -0.34474590160921
H         4.95806098735243    8.72559214796077   -0.68347158566295
C         2.36566571884138    9.92580453013543    1.14690323315939
C        -1.50023417732729    7.53608232377020    2.91264237621776
H        -1.71478830231970    6.47180065949112    2.75140680378875
C         2.20221360783243   11.13912565103000    0.47836901652339
H         1.39784622134197   11.79922279263812    0.76438213234857
C        -1.33052306680416    8.20476035979274    1.55042967952531
H        -2.22799571566684    8.06541685548408    0.94960171906932
H        -0.48926030803067    7.77511301682010    1.00591246075392
H        -1.15960624465213    9.27359469268016    1.66684757211271
C         0.29407635750987    9.35709276950633    4.17262430046652
C        -0.29900218720524    6.82839995736702    5.47626845088864
H        -1.16123426624421    7.35184395796855    5.90089589677685
O         3.64231767383793    4.92143589783952    4.53120196561119
C         4.04019081116582   10.61360862517980   -0.98924590387386
C        -0.24247175408827    9.96466960821205    5.30099137878368
H        -0.81788029467415    9.38193677041724    6.00405175262774
C         4.46242174811872    6.36626939675310    0.44490224166048
H         5.37895241215419    6.86540840930284    0.11339086588568
O         0.05701660024906    4.80754834158131    0.87259411883334
C         0.70380172528071   12.06281342603952    4.67505895392589
H         0.87988509916842   13.10959323641304    4.87805926332855
C         0.80294105900056    5.39835054171230    1.51137007225012
C         3.36722760952243    9.03146175520974    0.72125553137366
C         4.94271486385014   10.99957847886017   -2.12270305803048
H         5.62991344950559   10.19328467205723   -2.36679252330367
H         5.52488337921945   11.88297724243344   -1.86104646760217
H         4.35806005296198   11.23863894155296   -3.01016638932524
C         3.55417408862094    6.10280756954738   -0.75291737737779
H         4.05558399138271    5.46383739363476   -1.47818864332191
H         3.26694231791155    7.03024400497553   -1.24543181230549
H         2.64736620166229    5.59744004511334   -0.42170194981208
C         0.89558301019386    6.97678660186123    6.41354747240916
H         0.66669801247730    6.55695200223496    7.39185913602805
H         1.16969552279170    8.02322297096515    6.53922833393553
H         1.75455827274481    6.44526253194645    6.00647571525996
C         4.83289268292163    5.05287949073023    1.12545541216836
H         5.29076175710635    4.37282828006124    0.40857411624675
H         3.93570061912074    4.57585870650888    1.52388957201124
H         5.53463965709486    5.20987136331846    1.94244826561654
C         6.09597577678188    8.63908756556567    2.26862891512540
H         6.79358838420595    8.90083717237748    3.06314233879156
H         5.81121942136418    9.55338073820903    1.75169008019982
H         6.61635670650193    7.98850518399305    1.56974690132744
C         4.87693176872200    7.95641407348620    2.87438545063285
H         5.18738733057991    7.01511717607327    3.34563561235220
C        -0.67451071678259   11.96002339006403    6.76912731056685
H        -1.17061845383117   11.22327706375735    7.39620214198817
H        -1.40785111809779   12.70943803544950    6.47120371824721
H         0.09056551039355   12.46142689848575    7.36060308461905
C        -0.65357836151267    5.35761822080002    5.27742827224474
H        -0.72978684207156    4.85206959388063    6.23881138134890
H         0.12319491713201    4.86375730531320    4.68937909648766
H        -1.60221201817938    5.24507368190334    4.75628369742580
C        -2.65445336528356    8.17634673501115    3.67396469085342
H        -3.54557330479540    8.17259793165031    3.04758708464978
H        -2.42237641819840    9.20918166306615    3.92696700616662
H        -2.88908883352969    7.63386880285320    4.58644704900838
C         4.23681037309502    8.83798745585934    3.94429329720921
H         4.92464515912038    8.99090212571779    4.77428785688220
H         3.33015308592661    8.36984837644913    4.33453005167275
H         3.97508640796191    9.81269384705440    3.53529027727888
H         1.51271891768584    8.48791289737356    2.25049506678859

