63
CSD_code = KIWNOT | q = 0 | S = 0 | Stoichiometry = C28H28Cl2O2P2W | MND = 7
W        -0.96621959036388    5.34002296439738    8.07971589537291
Cl        0.93041993730488    3.93299167073367    7.71830595546146
Cl       -1.73186724807923    3.36040646917288    9.17952565832129
P         0.11802466565925    6.18333144363946    5.99382050501276
P        -3.27061356031576    3.84697140456952    6.72758263210453
O        -0.28696417869470    6.24048339463455    9.31429231580490
O        -1.88873738211773    4.33941033762547    6.35906219983625
C        -2.46036683173702    6.83836527764011    7.59735421301239
C        -2.99925052899303    5.87668125905563    8.55236390990578
C        -4.04569189548046    4.88911733082063    8.04459905921664
C         0.79757188523110    4.97042024900129    4.78773030013579
C        -4.26604803576928    4.06390928373709    5.20386234574293
C        -4.81720009470858    5.29495523812484    4.87423057083586
C        -5.46075141819272    5.47101841902508    3.66209055593579
C        -5.55083387336670    4.41989841226425    2.76511617664102
C        -4.99111021167179    3.19317500664291    3.08194508376187
C        -4.34876255566465    3.01686138832172    4.29469739720146
C        -3.30825670126727    2.05923757665902    7.00929604554269
C        -2.14068483444877    1.33044207875157    6.82308676857235
C        -2.15755570633344   -0.03888848861670    7.00941858724268
C        -3.33402846473701   -0.67300802310618    7.37793181959244
C        -4.49742611212582    0.05802274423247    7.55903884618207
C        -4.48915092986926    1.42847239692782    7.37220108598881
C        -0.88840367572879    7.23496977982063    4.88970104438401
C        -0.94557052608251    8.61079873141413    5.09348889442567
C        -1.77816315149388    9.39627473508928    4.31811423467098
C        -2.57496662892254    8.81508174028640    3.34421642181992
C        -2.54059432551647    7.44393703834690    3.15175470938099
C        -1.70528047224392    6.65577305837521    3.92291251304991
C         1.57706172550264    7.21945832635291    6.31254857187488
C         2.02087861602596    7.36399974692145    7.62208751090540
C         3.15564978454162    8.11333312279591    7.88539017671732
C         3.84391787719534    8.72027373217543    6.84790225242325
C         3.39659856350141    8.58462298904768    5.54252105444012
C         2.26734186310183    7.83518888242641    5.27185914893563
H        -2.94314371988133    6.85647266289349    6.61351433046023
H        -2.31859223395185    7.85037253191158    7.98377333310646
H        -3.24905023500793    6.26512342220909    9.54562375364235
H        -4.36358892767329    4.22067940203446    8.85007474049096
H        -4.94053970096517    5.37911792154596    7.64280182716623
H         1.71073848853169    4.54910978554210    5.20524335111214
H         0.08184073998464    4.16245771609469    4.63810955214375
H         1.00416344825311    5.46806207958103    3.84043981904662
H        -4.74300002320789    6.12652806644880    5.56025055852610
H        -5.89030676975863    6.43149363438818    3.41828464046010
H        -6.05338680978883    4.55704405520533    1.81918333743919
H        -5.05354965626688    2.37255119367371    2.38256072283406
H        -3.90905068781822    2.06093061962394    4.54287652220462
H        -1.22486732971364    1.84896057405815    6.56642679631328
H        -1.25137524544629   -0.61077114434800    6.87845811017610
H        -3.34331994794851   -1.74190663693810    7.53139192954297
H        -5.41006247188169   -0.44034508194148    7.85061457381752
H        -5.38914697716999    2.01221266702435    7.50802887884491
H        -0.33175213449788    9.05676296034960    5.86391570702546
H        -1.81100063492745   10.46411956627625    4.47611963901879
H        -3.22635201032324    9.42976948932625    2.74074523072716
H        -3.16865536563279    6.98432503646400    2.40234342228898
H        -1.69763091957281    5.58406656167304    3.78152480439854
H         1.46483640639557    6.88936969644097    8.42976287188451
H         3.50250066654692    8.22317240306455    8.90162700654132
H         4.72942330610761    9.30309323806422    7.05422385201544
H         3.93095960209489    9.06321014378116    4.73482564965911
H         1.91204315942672    7.73580771829327    4.25539057869519

