59
CSD_code = KIWNUA | q = 0 | S = 0 | Stoichiometry = C26H20F2N4O6Zn | MND = 6
Zn        2.36335487250423    2.73928062381335    1.74836131560601
F         4.17898124782783    2.50298889005242   -5.96368300296849
F         8.49383937789561    3.59492068033457    6.69861829456192
O         2.08287870441377    1.77889820505699   -0.06531981693775
O         3.17664047554641    3.65531835241732    0.13954240565943
O         3.13508314538682    3.71034658004551    3.38801311399594
O         4.11396485741325    1.98660123444928    2.47648541422709
O        -0.34437779588153   -1.87367613693371    6.40003639400375
O        -2.25910057522052    7.95077018159577    0.78594499496766
N         1.35053047843963    1.25121400682108    2.88386318661945
N         1.16708362153878   -3.14109776389594    5.30851497821852
H         1.01998248703643   -3.91022332340819    5.94166187360570
H         1.92721462998903   -3.19531088447247    4.65461100193492
N         0.63547143755139    3.95671030195331    1.59726674212718
N        -3.70364641519895    6.24831002254505    0.49541489185529
H        -4.46310482768988    6.88980460215418    0.33593389400039
H        -3.90904305000617    5.26892644989138    0.57267757319490
C         2.79000732879674    2.69115285295392   -0.55812735274551
C         3.15606934489304    2.63980463994593   -2.00154974581006
C         3.95213227896568    3.64152303447220   -2.54800734027697
H         4.28868826407868    4.44142200017788   -1.90720927836753
C         4.30147540169118    3.60121607245349   -3.88409754025745
H         4.91868881993737    4.36467171261259   -4.33099818284049
C         3.84328173165700    2.54828385948518   -4.65724643925345
C         3.05152124540078    1.53916669659228   -4.13669325506677
H         2.71903232502530    0.73623475930068   -4.77589094967950
C         2.70990566588192    1.59093911012836   -2.79886928071461
H         2.09755996445887    0.82259608651952   -2.35295889909069
C         4.11196498998862    2.92801392779154    3.30165302881607
C         5.27740514401752    3.10509733565720    4.21297807905882
C         5.26654048421551    4.11170473496083    5.17298466506582
H         4.40245283903924    4.75377810918633    5.24324139974888
C         6.34862177630614    4.28215033271928    6.01516794295865
H         6.36498656390271    5.05565084130770    6.76688051391761
C         7.43442743527484    3.43461981708164    5.87808803567990
C         7.47062504009187    2.42787726761988    4.92854284945822
H         8.33989550110231    1.79343431017901    4.85398522933728
C         6.38167898417875    2.26732626972503    4.09357325488164
H         6.36829729153417    1.49916358876154    3.33615072840768
C         1.05779424196844    1.45969690977857    4.16132274918090
H         1.06302715303770    2.49015647642948    4.48541660464330
C         0.77058357380246    0.42976424494288    5.03867338850881
H         0.52272100184477    0.62270954389102    6.07056273330254
C         0.80614976650064   -0.88099193326606    4.57249451782627
C         1.10211545495822   -1.09059139335506    3.22939863609111
H         1.10852098867996   -2.08253748325769    2.80409834744032
C         1.36468986437123    0.00655317758668    2.42650247364924
H         1.60038288175102   -0.09945305016868    1.37818248429110
C         0.47949673061574   -1.99603794363566    5.52212331643994
C        -0.34308069029808    3.62586775497614    0.76571701614524
H        -0.27755395032155    2.63916492486134    0.33068579099706
C        -1.38684614233721    4.48046164330424    0.45546878303244
H        -2.14383609919722    4.16684552476521   -0.24706516953397
C        -1.41023510954380    5.74521256332415    1.03642475466334
C        -0.36380199101542    6.09345585256519    1.88508377030001
H        -0.34365132645141    7.07788114583695    2.32565339094427
C         0.63309405390187    5.16786505740862    2.13919562807758
H         1.46341188200874    5.38622278895115    2.79378855427779
C        -2.48059337618431    6.76174481294186    0.76353151184187

