101
CSD_code = KIWNUB | q = 1 | S = 0 | Stoichiometry = C44H52CuN4(1+) | MND = 2
Cu        4.71610097540323    4.71610100087443   -0.00000002082276
N         6.42876751755765    6.93857704889084    1.01165161038564
N         2.24327120588250    3.26915332814243    0.78966210402069
C         6.10650521716832    6.10650522913771   -0.00000000620111
C         7.44373650811827    7.77097329234335    0.63720603912317
H         7.84584304407451    8.51686994701435    1.29050140203661
C         5.76587690244707    6.98198781865431    2.29176014098047
H         6.51650401683125    7.13126876705924    3.07240154671703
H         5.28182049363633    6.01200250372514    2.45240520283442
C         4.71405520160274    8.06548920241250    2.37677124146292
C         4.54726086331937    8.77353576635969    3.55860826802252
H         5.18819439083590    8.56700313171399    4.40338938778392
C         3.56283035114770    9.74041905529633    3.66141392557450
H         3.44068541343651   10.28479672328472    4.58517402788772
C         2.74388615783134   10.01472303448963    2.57963280367829
H         1.98205725967847   10.77503621530372    2.65655779809070
C         2.90929981573887    9.31366628017666    1.39774191554750
H         2.28001794870988    9.53181291712883    0.54791810124548
C         3.88488773552233    8.33808426211028    1.29811965809921
H         4.00263237879933    7.78681070446910    0.37585107578421
C         3.33317614410744    3.33317615194698   -0.00000000837800
C         1.50594064495537    2.15575640806936    0.49966205577531
H         0.59887110671417    1.91938222640706    1.01599358394207
C         1.96095084206811    4.27694699491923    1.75769514273105
C         2.54408467063367    4.18153957501775    3.02263310132429
C         2.36457559764329    5.24224462378312    3.90145232878022
H         2.80671834457828    5.20144807592223    4.88426107656142
C         1.63023260255251    6.35249231239717    3.53239688861366
H         1.51680603919534    7.17579028430784    4.22038919151131
C         1.03173481922509    6.40980841095797    2.28856484672360
H         0.44967936246814    7.27640302867924    2.02110293942979
C         1.17877718963367    5.37082345107298    1.37978743934577
C         3.33289794702117    2.96374261353578    3.44627717002671
H         3.34115754959415    2.23426551082076    2.63007532706183
C         4.78580198409303    3.32950107197911    3.75545847882942
H         4.84189082698782    4.06972126263367    4.54907234833068
H         5.27325665716189    3.73053803155615    2.86783772012671
H         5.33169644144228    2.44517594679774    4.07397510898776
C         2.67173717097790    2.30077291904372    4.65707604226476
H         2.70163348953643    2.95415225641467    5.52423100170884
H         3.19094517127340    1.37866751626991    4.90619890422956
H         1.63197586164575    2.06409409883679    4.44317521158669
C         0.53366821519556    5.44277006938784    0.01525642295809
H         0.60093923453552    4.46211494763906   -0.46719606007962
C         1.28308023762898    6.45143906492953   -0.85787066857220
H         1.23379438784177    7.44333436065647   -0.41756288524928
H         0.84293486864122    6.48916585469597   -1.85116931614724
H         2.33027915127202    6.16645602284934   -0.95030346055745
C        -0.94915730767103    5.80437794081355    0.11208285679764
H        -1.46157765385436    5.13745546536235    0.80151449925267
H        -1.41543575812762    5.71355637939823   -0.86596456271864
H        -1.08533470982510    6.82538870003944    0.45619326014620
N         6.93857705104260    6.42876752099817   -1.01165161212198
C         7.77097330995520    7.44373649520668   -0.63720602754524
H         8.51686997736627    7.84584302261264   -1.29050138154468
C         6.98198782099507    5.76587690666853   -2.29176014313247
H         7.13126877035484    6.51650401946123   -3.07240154994207
H         6.01200250437224    5.28182050038566   -2.45240520387804
C         8.06548920217386    4.71405520301952   -2.37677124320610
C         8.77353576740561    4.54726086349493   -3.55860826886505
H         8.56700313456217    5.18819439122675   -4.40338938888798
C         9.74041905577363    3.56283035055155   -3.66141392484447
H        10.28479672548776    3.44068541262835   -4.58517402613994
C        10.01472303296729    2.74388615773043   -2.57963280203639
H        10.77503621394430    1.98205725955631   -2.65655779486298
C         9.31366627642866    2.90929981605839   -1.39774191532928
H         9.53181291092916    2.28001794835961   -0.54791810089520
C         8.33808425886988    3.88488773646670   -1.29811965946609
H         7.78681069855594    4.00263237885834   -0.37585107860639
N         3.26915332501281    2.24327120539124   -0.78966210752892
C         2.15575641473194    1.50594063499817   -0.49966204250119
H         1.91938223854863    0.59887108808062   -1.01599355847068
C         4.27694699250062    1.96095084011048   -1.75769514516732
C         4.18153957345447    2.54408467002147   -3.02263310314715
C         5.24224462326617    2.36457559845030   -3.90145232948243
H         5.20144807558435    2.80671834697110   -4.88426107641756
C         6.35249231219257    1.63023260418221   -3.53239688891539
H         7.17579028429142    1.51680604153234   -4.22038919169769
C         6.40980841120976    1.03173482123442   -2.28856484679823
H         7.27640302989444    0.44967936594518   -2.02110293887950
C         5.37082345026325    1.17877719047594   -1.37978744025207
C         2.96374261234096    3.33289794698499   -3.44627717189903
H         2.23426551031497    3.34115755025176   -2.63007532809471
C         3.32950107110489    4.78580198382956   -3.75545848198190
H         4.06972126209365    4.84189082648646   -4.54907235136792
H         3.73053803037721    5.27325665789410   -2.86783772360759
H         2.44517594613813    5.33169644128712   -4.07397511284911
C         2.30077291747733    2.67173717063728   -4.65707604374694
H         2.95415225462643    2.70163348870461   -5.52423100348540
H         1.37866751472339    3.19094517089464   -4.90619890599071
H         2.06409409749297    1.63197586139915   -4.44317521249502
C         5.44277006983474    0.53366821765634   -0.01525642314008
H         4.46211494848942    0.60093923580048    0.46719606058556
C         6.45143906409541    1.28308024297222    0.85787066717771
H         7.44333436025048    1.23379439343219    0.41756288490063
H         6.48916585324961    0.84293487605137    1.85116931555975
H         6.16645602054137    2.33027915628045    0.95030345683033
C         5.80437794349362   -0.94915730473708   -0.11208285466175
H         5.13745546916383   -1.46157765269496   -0.80151449681464
H         5.71355638212544   -1.41543575391985    0.86596456551581
H         6.82538870305135   -1.08533470562686   -0.45619325737939

