35
CSD_code = KIWNIO | q = 0 | S = 0 | Stoichiometry = C14H16Cl2N2Zn | MND = 4
Zn        0.48003288940431   11.99529318565404    9.85874861254579
Cl       -1.31237731966818   12.43728262778451    8.68164108934375
Cl        2.06580122486678   13.17374540684883   10.86518831683435
N         1.55108707667577   10.41368876164318    8.89284400017886
N         0.35417467276869   10.38152334322239   11.34353942708283
H        -0.34615932996213    9.69131344673587   11.07285401681301
C         1.85744042707044   10.28678432808955    7.60885860661623
H         1.41152230237786   11.01224679727954    6.94372149138063
C         2.69158392617722    9.28682174392036    7.14099487472114
H         2.91908598247114    9.21467979563127    6.09002176656946
C         3.22154662736352    8.38763192676237    8.05484186519518
H         3.87708477493302    7.59399564305911    7.73000784676228
C         2.89030866213776    8.52002886505251    9.39211815890804
H         3.27945445647236    7.83796569216384   10.13210022603864
C         2.04516313770828    9.55427287969007    9.77843505705663
C         1.67877511854646    9.77926408754091   11.21673298914151
H         1.76584667552284    8.84226321861105   11.78285470008495
H         2.39753551274784   10.50114954021744   11.62456277103633
C         0.06017145656120   10.81384468558384   12.71970445603592
H         0.83077876267347   11.54525571930590   12.98683176360271
C        -1.29991625212771   11.50475043029517   12.74780622405110
H        -1.30079819839919   12.34924564825190   12.05839419863693
H        -1.50701788234442   11.87252582547744   13.74928860391758
H        -2.09299328713955   10.81830254463513   12.45959905548682
C         0.10243236143510    9.65952967963571   13.69721924338876
C        -0.68319114874030    8.52922651459637   13.50083223917764
H        -1.34333965882018    8.46606698380885   12.64614629356560
C        -0.63954489568664    7.47695330519386   14.39775376898703
H        -1.25599041344664    6.60553013847409   14.23297922761941
C         0.18810377519928    7.54222785038594   15.50580799742857
H         0.22041596606254    6.72131845187777   16.20628308789150
C         0.97171205450252    8.66455221188781   15.71166744652535
H         1.61903668668133    8.72216259949800   16.57388350475813
C         0.93066970718922    9.71417114612077   14.81048336704550
H         1.54536414878685   10.58788497506487   14.97135370557158

