35
CSD_code = KIWNOU | q = 0 | S = 0 | Stoichiometry = C14H12Br2O6Zn | MND = 6
Br       31.44385154391321    5.12081998006171    8.13800838189524
Zn       26.13163493175897    1.15279637163041    2.90537085951354
O        28.04437025710068    1.35909099485310    3.52596834916124
O        26.35807169572977    2.32867478622627    4.49952643113986
O        25.41797198452787   -0.44006396636928    4.21691250730610
H        25.10991993204292    0.04872480965676    4.98827275763848
H        24.62719009045632   -0.74566181741634    3.75835106251866
C        27.59608078276732    2.14949083104465    4.38961668850181
C        28.52678915288400    2.86592018879046    5.29717744718962
C        28.02788694573833    3.76624730224074    6.23398882431744
H        26.96268760946226    3.93007881723129    6.28450110100040
C        28.89026724686745    4.43799341059587    7.07861071754115
H        28.51423164111106    5.13967611282933    7.80755856595775
C        30.25201456170829    4.20037435139540    6.97685950616466
C        30.76673044356908    3.30890023825910    6.04844323858003
H        31.83146113543335    3.14289524206912    5.98764571429632
C        29.89730183577591    2.64205237078891    5.20716773017802
H        30.26557016168366    1.94304534420214    4.47268131461095
Br       20.81228113881794    5.12154640368343   -2.31903652264021
O        24.21865479337534    1.35898572475373    2.28851366138504
O        25.90274210524768    2.32800489151900    1.31034007075451
O        26.85102450471890   -0.43858747485752    1.59463165784382
H        27.15735458488192    0.04629577737869    0.82005590193384
H        27.64276394987432   -0.73701389313384    2.05624625907723
C        24.66494146128609    2.14897880573659    1.42354910988243
C        23.73226144181923    2.86501890341341    0.51755606387347
C        24.23104295418804    3.75902759604216   -0.42513027792507
H        25.29670066199289    3.91748273019945   -0.48174021472585
C        23.36822303186706    4.43205670887022   -1.26832915565391
H        23.74430912174473    5.12807109905587   -2.00245467855873
C        22.00573595211010    4.20189507290916   -1.15838540519840
C        21.49125352849284    3.31597021037113   -0.22478842913751
H        20.42582820880160    3.15585094572703   -0.15802929574591
C        22.36124756961219    2.64781502748783    0.61502051885510
H        21.99300303865186    1.95424610271930    1.35481953844955

