91
CSD_code = KIWPEN | q = 1 | S = 0 | Stoichiometry = C38H48CuN4(1+) | MND = 2
Cu       -0.32415743052488    8.33313447811120    7.71189405238306
N         0.78900654142056    7.45614848172857    5.14045777207701
N         1.43290670607531    6.11124479556235    6.67837383499911
N        -1.60210925414327    9.64811989080622   10.08310861486571
N        -2.40643256675323   10.69203120793752   10.44188607861486
C         0.69256332041878    7.21674020838031    6.46428610092870
C         1.57721154832726    6.51778753799572    4.53559037353099
H         1.77925931734945    6.53341511440329    3.48492863405028
C         1.98482434643708    5.66653102079466    5.50889723911198
H         2.61145044052804    4.79996655978609    5.46845169798477
C         0.15896977959091    8.55355554921299    4.48552608535218
C         0.87494030863457    9.74247397821922    4.32639377734364
C         0.23315054201839   10.81151645883086    3.71564739414258
H         0.75557384033828   11.74569608126006    3.58797639146088
C        -1.07015842002820   10.69446922025384    3.27084318655700
H        -1.55255006866977   11.53481112427232    2.79551288207062
C        -1.75924457017899    9.50806325868262    3.43515995564496
H        -2.77724185693217    9.43213659428166    3.08763181048699
C        -1.15959274983105    8.41494112727454    4.04789936686983
C         2.28699236676125    9.88861647834929    4.84296043854902
H         2.67702962411265    8.90189630196060    5.11337553285765
C         3.22228585019972   10.47660503088573    3.78567045632888
H         3.15891590244518    9.90871340990337    2.86018019789832
H         4.24913656497517   10.44161884740808    4.14143832514088
H         2.97653599773777   11.51251938835466    3.57146773043590
C         2.27601544275371   10.75368699283482    6.10674631790032
H         1.89892942972818   11.74893294762764    5.88565969816151
H         3.28303364000848   10.84645538882725    6.50581844153902
H         1.63777993854940   10.30685741538213    6.86849948575813
C        -1.93449333688676    7.13351352807961    4.24436753227694
H        -1.28541205900229    6.38373866851058    4.70792202603907
C        -2.41121570165847    6.57224776572763    2.90345578160963
H        -3.11433153190762    7.24698336241563    2.42364729060603
H        -2.90718825453289    5.61686325251317    3.05614813132003
H        -1.56945840437729    6.42028819752027    2.23126921165517
C        -3.11457752483714    7.37476819905320    5.18938876539159
H        -2.76410550568049    7.76972192209827    6.14233381632062
H        -3.64182129570286    6.44209763968018    5.37368853527107
H        -3.81604939868350    8.08588764438324    4.76175631994214
C         1.60466795217947    5.49525103032247    7.95094971254966
C         2.56705662805697    6.00389704865041    8.82435580296369
C         2.69772839390207    5.40070238339002   10.06890057994990
H         3.43099349076908    5.77144711754225   10.76725884160467
C         1.90164467121742    4.32916039155769   10.42341074887111
H         2.01786740989922    3.87137495225133   11.39384598919773
C         0.95720541669772    3.83834003727073    9.54123654847101
H         0.34294197804718    3.00285758336881    9.83399683340324
C         0.79252894113749    4.40848866206228    8.28656303607939
C         3.43991875853910    7.17964094805063    8.45249986063547
H         3.24391925165963    7.46341176699004    7.41379028016127
C         4.92257987678909    6.82019371187827    8.56365323421862
H         5.19969536892848    6.60473968193214    9.59146933468198
H         5.53257067379699    7.64971723387034    8.21449686233569
H         5.14982800650506    5.94626272375845    7.95729744915628
C         3.09925167628581    8.38385075231966    9.33399378969227
H         2.04997420286172    8.65296526197472    9.21248310283532
H         3.71013285012634    9.23776469201273    9.05237318308570
H         3.28200279395644    8.16011416690760   10.38170063037438
C        -0.27407322028923    3.91215876537272    7.33769626905899
H        -0.01576484792761    4.21718453562415    6.31817445557684
C        -1.60921021506925    4.56795863031700    7.70674231883751
H        -1.89559589917219    4.29505256952510    8.71980612522100
H        -2.38993260119980    4.23798775243858    7.02609551144443
H        -1.53347435534860    5.65369423822294    7.65066899472356
C        -0.40314969498028    2.38908548306540    7.33953907069040
H         0.57114180941301    1.92047666438561    7.22243525203424
H        -1.03739938597642    2.07432209093109    6.51439917403525
H        -0.85369858744646    2.02976373870460    8.26034479327322
C        -1.39483051511141    9.57467858492856    8.77021918857272
C        -2.16497935315691   10.64601509990900    8.22264194178519
C        -2.36633121227501   11.09100639302438    6.91092832230421
H        -1.87737033308166   10.59339462291745    6.08759250658956
C        -3.19291706238271   12.16858122903856    6.71471122878078
H        -3.36880184645889   12.53449239882573    5.71532437337603
C        -3.82239883294361   12.81168611811933    7.79082528349752
H        -4.46768054432422   13.65273307046629    7.58958650495808
C        -3.64123324425806   12.40056008136647    9.09102951502655
H        -4.13030294138938   12.90188746102577    9.91087217695042
C        -2.79845064889243   11.31118497781540    9.29925896161812
C        -2.98944097572138   10.84558104915169   11.75224628773480
H        -3.98789835733780   10.38721895215228   11.75905712428221
H        -3.10366004220165   11.91490554461778   11.94685434135850
C        -2.11564333291007   10.18913323790586   12.81411597799306
H        -1.19822507127105   10.76375198342004   12.95534881309015
H        -2.65512357184183   10.17513734069991   13.75980007022224
C        -1.77212745907021    8.77366360305273   12.36268104284107
H        -2.68738904269755    8.20865691061786   12.17577345785266
H        -1.20169932893015    8.25117271932370   13.12897884883699
C        -0.93637477834976    8.85688452854273   11.09149180065576
H         0.03139997389695    9.32098427563730   11.32058874183245
H        -0.74484434069441    7.86793013339418   10.66803642118352

