49
CSD_code = KIWPOV | q = 0 | S = 0 | Stoichiometry = C24H20N4Pd | MND = 4
Pd       -4.19449903139722   -4.19449983639308    0.79534109045000
N        -2.98724489959969   -2.56642028146383    0.81421741177946
C        -3.39188224393431   -1.26213685101120    0.83980936752062
C        -2.23922296173172   -0.40928480347483    0.91729036158134
C        -1.15061192751451   -1.20954504525178    0.91802353980526
C        -1.62029531350797   -2.56487810286428    0.84012799350040
C        -4.70479993398072   -0.78786470821876    0.80555904804413
C        -4.90803656082929    0.70266365163731    0.75027264892314
H        -2.24832081489745    0.65977672841373    0.99034818946222
H        -0.12913454908472   -0.89427845526726    0.99326332954369
H        -4.83834863632653    1.13319569217753    1.74984912055254
H        -4.15283021659764    1.16849753567970    0.12384747193945
H        -5.87792461339882    0.95324935771032    0.33585730172172
N        -5.82257824793200   -2.98724442875954    0.81413480254948
N        -5.40175478333976   -5.82257930277097    0.81416354584410
N        -2.56642041701986   -5.40175684718016    0.81417842682439
C        -0.78786717330369   -3.68419992206962    0.80556973999809
C        -5.82412086305555   -1.62029451597301    0.84009030235657
C        -7.12686057750161   -3.39188282281426    0.83977564126056
C        -4.99711679626708   -7.12686224526138    0.83978938117007
C        -6.76870532109293   -5.82412273329182    0.84009242337565
C        -1.26213804543916   -4.99711790291111    0.83980167573919
C        -2.56487732176552   -6.76870650699616    0.84010199502215
C         0.70266097937447   -3.48096327094014    0.75026519894008
C        -7.17945437344277   -1.15061129673253    0.91802531091067
C        -7.97971333096169   -2.23922407044555    0.91729116589574
C        -7.60113411927726   -4.70480064294315    0.80554910224078
C        -6.14977604585764   -7.97971604700110    0.91728199421408
C        -3.68419935415119   -7.60113495464559    0.80555722399541
C        -7.23838917576778   -7.17945741249787    0.91801806529174
C        -0.40928527971206   -6.14977571050089    0.91729566856400
C        -1.20954408782418   -7.23838827853919    0.91802840991931
H         1.13320358401998   -3.55065353034950    1.74983782129065
H         1.16848910444944   -4.23616805941548    0.12383284236358
H         0.95324153327348   -2.51107409203385    0.33585027143112
H        -7.49472239377608   -0.12913319042224    0.99329822928263
H        -9.04877347307618   -2.24832251027005    0.99038060122072
C        -9.09166314759732   -4.90803503354936    0.75027626156399
H        -6.14067784657969   -9.04877687642812    0.99035686110243
C        -3.48096384747480   -9.09166378060167    0.75027532020955
H        -8.25986784677623   -7.49472699944114    0.99327675459244
H         0.65977515021800   -6.14067598882989    0.99037337006088
H        -0.89427603996696   -8.25986537235394    0.99328871411135
H        -9.52218917057407   -4.83834454051400    1.74985499262284
H        -9.55750025199343   -4.15282966817706    0.12385227878779
H        -9.34225193205134   -5.87792379490558    0.33586475077471
H        -3.55065218909529   -9.52219413713942    1.74985247238237
H        -4.23616976383717   -9.55749911499496    0.12385065604462
H        -2.51107543202456   -9.34224927997332    0.33586085322223

