43
CSD_code = KIWQAK | q = 0 | S = 0 | Stoichiometry = C22H12Cl2N2O4Pt | MND = 4
C        10.04670049914097    1.25401070012658   14.85221613500739
C        12.38190288547619    1.77468881977545   15.41723338650688
C        13.51874753478708    2.12764655605676   14.70652410476782
H        13.48230497329440    2.16140295806863   13.62895809065170
C        14.67760901537544    2.43773805703895   15.39685373357773
H        15.56633293660246    2.71535701854556   14.85190123158269
C        14.69666602392142    2.39683487473717   16.78107653313178
H        15.60115367210322    2.64461437830402   17.31452187732861
C        13.56631133433096    2.03477699318480   17.49918427128970
H        13.58441299523660    2.00485947726323   18.57678059577754
C        12.40172316683097    1.71564662112992   16.82412960840673
C        10.74688673124525    1.87084976471151   18.52874146735592
C         9.50191564984555    1.16445642654913   18.96146757961780
C         9.58533223305776   -0.07438929538138   19.57649954165658
H        10.54457230471630   -0.55787068347557   19.68129273543740
C         8.43488862285376   -0.69325647886559   20.03918062898804
H         8.50242499754252   -1.66987774449440   20.49406783238924
C         7.20342579211034   -0.07132220043126   19.91313155625944
H         6.31120072104559   -0.56058594600238   20.27228140544849
C         7.10724804322403    1.16197502999760   19.29590999291639
H         6.14869998368393    1.63562725881573   19.15642642197870
C         8.25424290003568    1.77981011889837   18.80451889269644
C         8.18932635436847    3.00627375829338   17.99086569151908
C         6.71743931170034    4.79849996737549   17.43291345642426
C         6.33570540743833    5.96101684036257   18.08727827452518
H         6.38248649470752    5.97969874237534   19.16476510536127
C         5.90766389622511    7.06289561962736   17.36908119195429
H         5.61694707146724    7.95965235649034   17.89335093087148
C         5.85525911944442    7.01776531563810   15.98412582769410
H         5.52392785911416    7.87880457795979   15.42522478875960
C         6.22278431187427    5.86698668619953   15.31627162690751
H         6.18220881767191    5.80933198833196   14.23966070054198
C         6.65206416146450    4.75051731973169   16.03054697129349
C         7.46018312947943    2.56697995450300   15.12866331593235
N        11.19327457886670    1.49704975105690   14.81864724692739
N         7.00411072864852    3.61688644440021   15.37560759002694
O        11.24340537123790    1.28227798306216   17.42475636109252
O        11.25828877637640    2.78371782027834   19.11372741535756
O         7.06367006881185    3.71138869184899   18.20930500102496
O         9.04948698487212    3.33718078670560   17.20314532253154
Cl        6.27683540121733    0.33175851711120   16.36979526594484
Cl        9.14150149260629   -1.08890734104012   16.15655268720494
Pt        8.26802764593591    0.85733151511758   15.41621760539112

