49
CSD_code = KIWTOA | q = 0 | S = 0 | Stoichiometry = C20H22N2O4Zn | MND = 6
Zn        5.62484186852735    9.55564921615599    2.80430306262745
O         7.39493239103956    9.54873616320517    1.89975886590668
O         5.79537093533677    7.60486239144547    3.08296117474436
O         6.40055432302374    9.94291870702308    4.58015444615428
O         3.80390614452465    9.64602759869701    3.62830892991317
N         4.66658944303653    9.40363030494599    0.93786462694884
N         5.39182323962125   11.56938704205647    2.23715684308302
C         4.41799479989608    8.26627788096689    0.32390335699644
H         4.67906645010293    7.37579289785262    0.87603084727511
C         3.85916785972930    8.20772511814264   -0.94535279101594
H         3.66633126001237    7.25772436570156   -1.41790671577552
C         3.56531270189534    9.40014552145523   -1.58562281099183
H         3.14012245922497    9.40374701120259   -2.57885311574899
C         3.82488989253589   10.59408848322922   -0.93407039088341
H         3.61220124766230   11.53030894784114   -1.42455977134348
C         4.37463625999175   10.55927786011838    0.34750539375343
C         4.68069251009938   11.76791906525915    1.13064928921167
C         4.25868274888478   13.04630364940318    0.76539893200518
H         3.65764975595871   13.20502273929933   -0.11549713573143
C         4.60824703182133   14.12200221226311    1.56423843793967
H         4.28957163115244   15.12050323822838    1.30196338295684
C         5.36767579629142   13.89630975866122    2.70025849833714
H         5.66464097366827   14.70909956146245    3.34392676479378
C         5.73045218965517   12.58964463981491    2.99681665116953
H         6.31052403242487   12.34125429661296    3.87309407307924
C         8.31628619891470    8.76739567948476    2.24454808721380
C         8.14746491281113    7.54563984069413    2.89945995973682
H         9.02774733497951    6.97239013342126    3.14788720664880
C         6.90736062404666    7.06015906914630    3.31093707785071
C         9.74208723153318    9.17695120108648    1.91673714115293
H         9.73350794285483   10.07313413466553    1.30230521071240
H        10.25760866514186    8.37609213501857    1.39218583918881
H        10.28043862477552    9.38395980418036    2.83922375562221
C         6.89737215288832    5.75026055509844    4.08113719634425
H         7.47259298418619    5.85728257805315    4.99805551259592
H         7.34971878803208    4.96046437575027    3.48523410242664
H         5.87431167010809    5.47949723542185    4.32852467584690
C         5.88707972962944    9.50737511883717    5.64379656824878
C         4.53809589325777    9.20935101552879    5.82998419408067
H         4.22206801772667    8.85925405825555    6.80091817875604
C         3.58810270297212    9.27436281073930    4.80898978255028
C         6.80990651729831    9.31159375368948    6.83505040469321
H         7.82864447098171    9.56493512503502    6.55345292169064
H         6.77392491246590    8.27570369698181    7.16459320360414
H         6.49333856986725    9.94364119548153    7.66209111267665
C         2.16940025788503    8.86555726676156    5.16768130226535
H         1.50514616266879    9.07544196224834    4.33362664730906
H         1.83107613621976    9.40167488849300    6.05113429369703
H         2.14304155263315    7.79952369488291    5.38321477967933

