43
CSD_code = KIWTOZ | q = -1 | S = 0 | Stoichiometry = C23H13O6W(1-) | MND = 6
W         2.07547388790393    4.50051066321666    7.88170458675539
C         3.31448834190291    5.35197071715942    9.19959278280006
O         4.03768771707853    5.96679921565403    9.84446106111832
C         0.50767377681163    5.33342855852211    8.79094940140590
O        -0.38366219093430    5.89705350613903    9.24632755116509
C         2.25458640133261    6.10282565650999    6.76317593513029
O         2.35536822773586    7.04973335994823    6.10216025463233
C         0.84138694520811    3.73808021583225    6.51136086047375
O         0.13486157714518    3.42925227960783    5.65987742641711
C         3.66020956649458    3.70788458242793    6.95600526594413
O         4.58892402111769    3.37422478588728    6.37069772300320
C         2.81081107249131    1.99441261469459    9.71912315547159
O         1.86056172485462    2.65378251238678    9.16679182861539
C         3.44617384865812    0.89924279688207    9.05124786741429
C         4.39865945577397    0.13585425053737    9.70776919500791
C         4.77496024590496    0.41341185273605   11.00993069579531
C         4.22582288795098    1.50895351271565   11.65170113997578
C         3.27126071487322    2.30590530823999   11.03843034087496
C         3.63122356991617    4.30211268848018   12.46792608585076
C         3.18525888094374    5.45379739241560   13.08422756314101
C         1.86080829402267    5.84225940905577   12.96368902818418
C         0.98860681008929    5.06026834536236   12.22680241362208
C         1.43107732863614    3.90326371945572   11.61130451678600
C         2.76522498814161    3.50352343035436   11.71663362641318
C         1.80793801363510    0.71207961901231    7.16931275059152
C         1.52585128064492    0.46996326191573    5.83704804358824
C         2.53690794047733    0.13097133341105    4.95492789607355
C         3.83853514601166    0.03047636391768    5.41887081599332
C         4.12367664441862    0.27122866604814    6.74783433033686
C         3.11546294043247    0.61827004223694    7.65025047383410
H         4.83253619253088   -0.71591978030013    9.19783375450162
H         5.49531017593633   -0.21438115880163   11.51749931985300
H         4.52388110265490    1.73387223956119   12.66870163664887
H         4.67452710776770    4.02762214934039   12.54235099575983
H         3.87690246576786    6.06233250026179   13.65277922999148
H         1.51422901935377    6.75097773055976   13.43773579638203
H        -0.04743820389193    5.35592403579798   12.12900830591407
H         0.73656378068952    3.29053306998046   11.05688920867483
H         1.00908760287062    0.95891241976920    7.85212127710496
H         0.50693137990239    0.54900240559616    5.48229765156753
H         2.31489629094685   -0.04976940722470    3.91154390665080
H         4.63728482940459   -0.22691112701344    4.73494693413476
H         5.14726819637580    0.21796426169897    7.09245736640290

