48
CSD_code = KIWXAS | q = 1 | S = 0 | Stoichiometry = C17H24ClFeN4O(1+) | MND = 6
C         2.45966290792112    4.76590591161548   15.75203397144055
H         1.88869638572918    4.35005108323636   16.58955930816983
H         2.65152196017050    5.82061855271331   15.97317229684887
C         3.76810720999366    4.03373794783897   15.58988356644919
C         4.84395860651905    4.17994851940442   16.44965907334239
H         4.76071477206334    4.81458871828104   17.31653563073531
C         6.02455161817471    3.50981001835550   16.16412387073737
H         6.87344901723959    3.59336308964731   16.82275331168283
C         6.11409273110439    2.77040826980880   14.99130716814372
H         7.03683403959313    2.29246628783601   14.70584596195752
C         5.00107502675213    2.68145161063104   14.17623590175670
C         4.97439637627680    2.07738931591334   12.80483638233616
H         5.26325927928597    2.87337899305066   12.11246789968362
H         5.67992757516932    1.24647004416995   12.69493836515774
C         3.27890989769361    0.40596273425005   13.13508806484981
H         3.86719697831968    0.33595718130617   14.05110671176386
H         3.53811140622733   -0.44688086199694   12.49828845853200
C         1.79956317936690    0.37949984403478   13.48562736314994
H         1.21090744412250    0.43003935067032   12.56888709213643
H         1.54340969656984   -0.54965074405761   14.00809589939429
C         1.80610280990103    1.30855655178744   15.70180989965217
H         1.23874279437514    0.46150015365165   16.10051478442942
H         1.56857306979374    2.18938534590287   16.28922680092129
H         2.86626717152995    1.09994658406353   15.81283446753756
C         3.44537266385968    1.58098116286682   11.02619801480769
H         3.58421097254299    2.56907232544161   10.59546440745566
H         2.44380711922349    1.23649091174341   10.78225095608418
H         4.17475553965669    0.89326711947433   10.58791099699830
C         0.06731122428374    1.90289755903269   14.17673770530617
H        -0.14383763294541    2.70826953989666   14.88476398819156
H        -0.58499668915874    1.05280290984543   14.41126308272137
C        -0.18949143065919    2.42472660283519   12.79478127281950
C        -1.42124074171906    2.33893176585688   12.16994573205906
H        -2.24694001858094    1.85774943933946   12.66959487136230
C        -1.57346842632323    2.88834789722368   10.90510134539544
H        -2.52298031186898    2.83929713201860   10.39698404065733
C        -0.47812507772266    3.50104302215118   10.31701672842951
H        -0.54727276502907    3.94877294742040    9.33966584751084
C         0.72012173287913    3.53295996959969   11.00673176644554
H         1.59369978535400    4.01215371490010   10.59642906714016
N         3.83797592599684    3.24919926855020   14.51211077833793
N         3.59977459541948    1.67780646312650   12.47183443073771
N         1.48301070672344    1.55546313300272   14.30466040251125
N         0.87053403279245    3.00654947085391   12.21967452766899
O         1.64157406187713    4.64192493123548   14.59494009152120
Cl        3.27995402881940    4.75197457111569   12.24260498463754
Fe        2.41354886664308    3.08598178914660   13.36301006294773
H         1.96626988404484    5.28473185120851   13.93179264744181

