53
CSD_code = KIWYUM | q = 0 | S = 0 | Stoichiometry = C16H32NiO2P2 | MND = 4
C        10.14136690274320   -1.91587568334415    7.12750172151723
H        10.05970715568602   -2.58419719410697    6.26890419434616
H        10.68030564322486   -2.44969219538302    7.91517580838885
C         8.74399040739340   -1.52460193366311    7.61063172556758
H         8.80879538597714   -1.13021627433397    8.62731482610011
H         8.08491235028363   -2.39818158060596    7.62250352673345
C         6.70509624239206    0.51889633933722    7.78521495442643
H         6.09022609276483    1.18033701521414    7.16109289478702
C         7.39693617484978    1.39027576530036    8.82996005097117
H         6.66166489755684    1.96404574892623    9.39181767958513
H         8.07744933640659    2.08942960434004    8.34390105033753
H         7.96373629989701    0.78581648783447    9.53612203534013
C         5.80197037393986   -0.50843884662478    8.46043182113467
H         6.37955133680892   -1.20016173124621    9.06912354732137
H         5.22330223935713   -1.07804771243191    7.73822628491281
H         5.10040937659399    0.00735663127487    9.11480532305151
C         6.88755873437488   -1.12873029659977    5.41563745438237
H         6.21378902915805   -1.77264750937179    5.99160092489581
C         6.07868355463206   -0.13992441408045    4.58220943149863
H         6.74772252876965    0.59007238928246    4.12542567421234
H         5.35183776961772    0.39396757934178    5.19068217780861
H         5.54153592149532   -0.65755511318471    3.78906160668422
C         7.75225839796247   -1.99975036335792    4.51105469172469
H         7.15507285493302   -2.41373680093903    3.69987466822573
H         8.18965388365593   -2.82888437783474    5.06289199368042
H         8.55488161897471   -1.40333717348385    4.07675524990618
C        12.17931953118706   -0.03396819783581    8.04541003151900
H        12.74798416309890    0.85033743535546    7.72927913477479
C        13.15507864512610   -1.10733333962108    8.51667868513598
H        13.64551715448992   -0.76656367887295    9.42769894416053
H        13.92704591255698   -1.30912622447259    7.77930368483927
H        12.64328903610037   -2.04009091006574    8.74531559602177
C        11.25708815568879    0.38841312460475    9.18657628153757
H        10.79688164912035   -0.48167571830039    9.65184693035103
H        10.47192717137242    1.04588116676004    8.81185219551267
H        11.81658973158600    0.92340191754802    9.95240012242977
C        12.38491042614591   -1.27166695798976    5.42735406226341
H        12.85036435593800   -2.10796777331207    5.96074084606927
C        11.71155507425423   -1.79471009115224    4.16314765543535
H        11.16499241827624   -0.98813309946494    3.67512654976994
H        11.01771271805781   -2.60549584004475    4.37348567052712
H        12.46173226207148   -2.16783570216857    3.46756669319151
C        13.42815041487124   -0.22353731072394    5.04769796786646
H        14.10332800940905   -0.61374013798824    4.28766481573795
H        14.02331205345925    0.08624185583016    5.90343134692694
H        12.92654156592159    0.65646675722778    4.64247886214186
C         9.96158913417941    2.62558750824226    6.57836222761325
C         9.60031189357281    1.14630025199058    3.97847941100936
O        10.28068732298806    3.64327223996716    6.99913254190594
O         9.53195289869687    1.34346326804302    2.85012919873240
Ni        9.67395762691518    1.06036732707004    5.76290713163083
P        11.13929027846895   -0.45879143741536    6.55032272494385
P         7.97017588699318   -0.17291479346395    6.59668937041332

