48
CSD_code = KIXMAG | q = 1 | S = 0 | Stoichiometry = C15H28N3OPd(1+) | MND = 4
Pd        6.78190566310451    9.66909933784080    6.42604985035547
O         2.56673819736641    7.63485025365927    3.43269739780601
N         6.45168250942963    8.01519262748411    7.64807069864840
N         8.65213350044437    9.95757289646153    7.67622512449834
N         7.06437080661375   11.37452626722141    5.23374329555139
H         7.74762522874897   12.07108022113665    5.53682277998071
H         7.31221634758522   11.07987463990537    4.28576305793264
C         7.28456421001620    8.26131905577629    8.84108751593011
H         7.35186761341361    7.34520133934320    9.44543770387274
H         6.78765642766139    9.02459416479576    9.44886816374446
C         8.69542792386913    8.73291279247808    8.48928357878675
H         9.25937133621805    8.89832757541295    9.41847846960215
H         9.21446869719031    7.95395699438380    7.92505441432224
C         9.88247048784952   10.07403929046793    6.88956659525480
H        10.77144181889147   10.03417342678524    7.53099596095107
H         9.89682429578498   11.02246861669208    6.35249078300562
H         9.93673990270974    9.26249493342304    6.15976516601893
C         8.50503562134807   11.13440468790168    8.53655607366415
H         9.33820375455167   11.21219648509599    9.24688920977982
H         7.57179348881801   11.08131480262428    9.10019048470744
H         8.48911998214831   12.04105642560523    7.93113294104719
C         5.06544954760292    7.83356823875023    8.09252103350719
H         4.99280770065991    7.00354535446060    8.80501341555757
H         4.41879407006550    7.62487035083582    7.24303581762061
H         4.70628953619027    8.74524420967822    8.57464585918849
C         6.90754541903299    6.80624254630946    6.95206312108576
H         7.90351445897309    6.95648028601224    6.52888711519091
H         6.22857593462487    6.57199565263053    6.13353406123139
H         6.93429451016316    5.94869103637117    7.63549639119991
C         5.70188865756898   11.95645833855533    5.22427322352217
H         5.64112144901826   12.81214402380731    4.53731849394175
C         4.79965596513661   10.83144661580784    4.78412074640511
C         5.14875857182650    9.55203198402396    5.22458071425516
C         4.43010813163835    8.45897441114148    4.76803751944239
H         4.71306764610674    7.45147497767356    5.04017426797982
C         3.33250819018942    8.63728187011196    3.92163227003119
C         2.87190623249358    6.29967712127578    3.75645248995041
H         3.87204565118599    6.01877212167751    3.41080468188083
H         2.13249766009575    5.69599567634409    3.23387884304737
H         2.78601914399999    6.11640955248802    4.83294516584103
C         2.96719275002861    9.92683635958190    3.53150077817238
H         2.11325681672631   10.04307875357360    2.88521040417939
C         3.70609162636224   11.01139189278151    3.94695703422483
H         3.43952301953387   12.00400101791839    3.61666469951274
C         5.35670366517108   12.41133064342406    6.64358555148062
H         4.33763935281370   12.78692371347951    6.67072257889697
H         6.02458774008938   13.20419702413747    6.97735358336985
H         5.43029873891510   11.54647939259711    7.32652087374962

