37
CSD_code = KIXNOU | q = 0 | S = 0 | Stoichiometry = C13H15Cl4NO3Ti | MND = 6
Ti        1.37610054036294    2.83336643256523    2.00995412902697
Cl        0.69405201795166    1.26705305366097    3.30758577463847
Cl        3.33787513123560    3.26248258622597    3.06364084599066
Cl       -0.62752701227787    3.37995393121915    1.08840355835102
Cl        3.00221401384687    5.10589337134196   -1.53958325050087
O         1.97884979014757    1.99543348633619    0.64633002330174
O         0.89529797520809    4.55586400027440    3.08294129492160
O         0.91967882877457    6.77457150917176    3.24143500516303
N         2.02462368157481    4.46761205742089    0.80436843382752
C         3.84421334459927    2.10482703919076   -0.86381941290670
C         4.37064186713570    2.21306065564589   -2.14472216535238
C         5.67042305878490    1.80663842308145   -2.39387686199254
C         6.45062117990239    1.29245706778039   -1.37249566961914
C         5.92659892318103    1.18353732049327   -0.09570963072143
C         4.62936114510962    1.59100357753562    0.16093937849486
C         2.41868381145117    2.55359953012097   -0.53545351716424
C         2.43853379497227    4.06205221134582   -0.30971503318493
C         1.40479866603694    2.23224379241809   -1.65167910292044
C         1.89652077978084    5.80109864409573    1.29459023945215
C         1.18432981794410    5.65462846914396    2.63436329303479
C         0.24770299001378    6.67434310476599    4.51833181003641
C         0.06096349442613    8.07528157324464    5.06348002729543
H         3.77841730348938    2.60751796394398   -2.95558436137460
H         6.07180268305951    1.89193481809380   -3.39265199955145
H         7.46353387310243    0.97687269907737   -1.57268066340211
H         6.52717609037655    0.78395537921483    0.70680330911811
H         4.21243939015887    1.50621599986929    1.15722231099123
H         0.40591832463557    2.44706658956843   -1.26792817569598
H         1.58562914479548    2.82287336926179   -2.54454174237788
H         1.47540092569918    1.17321338930067   -1.88854315631668
H         2.87908771654666    6.26799717415495    1.45343775039347
H         1.30604188132767    6.43749534204634    0.62031757874359
H         0.86330483902079    6.05766423928645    5.18179290857648
H        -0.71021908970912    6.16730563166069    4.36155913263844
H         1.02400580479955    8.56058011004878    5.19376029800283
H        -0.54089582842566    8.66858441789279    4.38109816398330
H        -0.44160089906661    8.02312103956844    6.02442947712580

