24
CSD_code = KIXQAK | q = 0 | S = 0 | Stoichiometry = C10H9N2O2Rh | MND = 4
Rh        0.86546584370137   12.15890578364911    9.11067415156723
O        -0.11480931474048   10.60686945525389    9.85566105428506
O         2.35410487272113   14.49390811218125    8.01630180359884
N         1.59863689095557   12.27583427215796   10.96763776493869
N        -0.14280741191650   11.68057073031534    7.28602346052293
H        -0.71850609289835   10.88948221615514    7.57536936672310
H         0.48405543840854   11.38018944758710    6.54352791215911
H        -0.74533849184411   12.41968702518421    6.93303413858392
C         1.77500021632770   13.58831480235434    8.43799104404221
C         2.45728068046990   13.12081748454832   11.51173544156233
H         2.85798411847807   13.90222552792298   10.88075865656149
C         2.85465937592049   13.03555185773975   12.85214758527510
H         3.55944915059474   13.75765809698892   13.23448447418050
C         2.34950866079714   12.04669469894122   13.65434314460204
H         2.64221610845568   11.96160170583661   14.69097074497247
C         1.43035385923950   11.12468237654507   13.11411834463382
C         0.84410830823705   10.07079602742801   13.83417579230797
H         1.10017072838260    9.93716326698696   14.87404670733299
C        -0.04443117413756    9.22644410403774   13.20983462585557
H        -0.49073009371106    8.41830826652067   13.77236721902488
C        -0.39211352699467    9.37604558514475   11.87091752731843
H        -1.09304634080249    8.69668914493480   11.40962898845411
C         0.15787194731429   10.40295728628783   11.10498725273009
C         1.08471624704041   11.28750272529742   11.74806279876640

