40
CSD_code = KIXSIU | q = 0 | S = 0 | Stoichiometry = C15H17ClMoN2O4 | MND = 8
Mo        3.60997917961683    8.65049149318608    4.16473747621109
Cl        1.83767216491338   10.26198659040216    3.55797185304679
N         2.98422634218068    9.21026393119673    6.07354758295619
N         4.72202429316520   10.34428662017989    4.55385680423455
C         3.97918122700305    8.46475842921607    2.26331362300942
O         4.18340968033551    8.31401555162170    1.14457389433747
C         2.25113943906900    7.30573692102134    3.80264949231575
O         1.45362127262429    6.51537581959928    3.57379526446883
C         4.14036217416901    6.68215623611759    5.30985630608623
H         3.78424359524656    6.51339601546110    6.32253863500728
H         4.04923108715792    5.80580360853376    4.67451539617961
C         5.29014131310584    7.48353849318498    5.15260463279420
O         6.26857465179685   13.53670975538732    2.46742245653214
C         5.70249490855474    7.65130210933810    3.81275827219494
H         5.62818573368038    6.78785384860385    3.15687679577052
H         6.60292785290680    8.23334121740763    3.63981082618027
O         4.83291304375021   13.28126352383264    0.78347662819733
H         5.26353053458559   14.07721611488035    0.43268432287527
C         6.04820295238242    8.05450668209319    6.31826683519525
H         6.60056896352846    8.95187465202914    6.04066664192176
H         6.77106146685806    7.30878771329808    6.65826384605109
H         5.39034971779551    8.28499174041420    7.15703888569231
C         1.98570850731399    8.66856336285821    6.77253010817230
H         1.55032547639111    7.76788178562785    6.35925673905726
C         1.50929766445829    9.19634859323395    7.95231112289071
H         0.69867867764353    8.71182865545658    8.47217770023706
C         2.08894271499535   10.36191263466324    8.46183263979505
H         1.73983406669472   10.78982182528022    9.38871569811318
C         3.09795202306828   10.95367525174100    7.74282982930782
H         3.56523872944012   11.86921253037988    8.07145629785398
C         3.51675674271051   10.36475868987660    6.53925631693302
C         4.47293707042577   10.95176862764285    5.66926392238452
H         4.92318652295846   11.91158179706792    5.92005832610241
C         5.54382788717150   11.04947998635992    3.60859299724872
H         6.22625924394908   10.34848296965001    3.12224949741533
H         6.13380232477935   11.83402343262817    4.10430380109699
C         4.67456590100587   11.72543404616575    2.53985735249167
H         3.73798357862072   12.07091763577239    2.99370141074919
H         4.39918143305609   11.04315890206518    1.73574909066950
C         5.36317984089446   12.93189220651742    1.95613067820808

