46
CSD_code = KIXVUJ | q = 1 | S = 0 | Stoichiometry = C19H19ClFeN5O(1+) | MND = 6
Fe        5.25180172306280    1.82273541272315    4.59511894035612
Cl        7.35220867260323    1.61062614610842    4.27353775157487
O         5.28861204591668    3.46456990068933    5.86598011675085
N         3.92396993946462    4.84654580281509    7.00739434478968
N         3.49602376253102    2.02359352776857    4.86358755606864
N         4.76729518001437    0.27222532723849    3.43345079936443
N         5.15146404745018    2.84632557488111    2.95415217467575
N         5.38083704234118    0.49031061430080    5.99339519500455
C         4.13532393183634    3.80388102715314    6.18952197509597
C         3.02127672601085    3.02404623596481    5.64582359652438
C         1.65584577486814    3.20690793789527    5.84149512362184
H         1.28987679401539    4.00659815883964    6.46505088682032
C         0.77114864774752    2.34658253996666    5.21958582321963
H        -0.29202541184190    2.46349747387585    5.34800411816132
C         1.27303388090811    1.31885582747934    4.41771103639020
H         0.60292524466896    0.63491309943577    3.92214841022642
C         2.63679041755330    1.18920101227228    4.26570561796842
C         3.29652756375166    0.12002989388081    3.43883033975294
H         3.02366036629977   -0.85770206860535    3.84780677990217
H         2.90698519738376    0.16553036578290    2.41713677017138
C         5.28006196475052    0.61220863616300    2.10080076842669
H         4.83027694735363    0.00373672234723    1.30807369109110
H         6.36264516189373    0.44428163211227    2.11166540214232
C         5.10308576273962    2.08316269558624    1.85437210773914
C         4.98340259268360    2.63100132771208    0.58728241834352
H         4.94588512045527    1.98743544644569   -0.27722220446176
C         4.93568559425490    4.00988928370977    0.45042908088157
H         4.85019935979566    4.46122458914688   -0.52511682019814
C         5.01556195494543    4.79285241329459    1.59167785692521
H         5.00517899915579    5.86858082195064    1.53177364627591
C         5.11977981376316    4.16663306592875    2.82067392429639
H         5.20356873312794    4.73017513521786    3.73700097394038
C         5.43907055211256   -0.88678469352760    4.03417330673680
H         6.49881012047221   -0.83127875092877    3.76203956133270
H         5.02756513803873   -1.84032699583508    3.68463457150993
C         5.39948803282282   -0.76683845487421    5.53094507904049
C         5.46189172107156   -1.85917017333354    6.38113879824529
H         5.47370898251620   -2.85826333848395    5.97505164180840
C         5.53110973167385   -1.64597199184585    7.74942444477756
H         5.58967603908929   -2.47937794937009    8.43135764474471
C         5.53932246568896   -0.34120803246536    8.21778722387456
H         5.61397088729528   -0.12758242503822    9.27119534722056
C         5.45913235743266    0.69328106920265    7.30279747535291
H         5.47980616090978    1.72622755373887    7.61428254651282
H         3.00579116691305    5.13925163967738    7.28738622769656
H         4.72434309245768    5.35008696300159    7.35643792930497

