63
CSD_code = KIXVOE | q = 0 | S = 0 | Stoichiometry = C28H28N2O4Pd | MND = 4
Pd       18.54706192362589   11.04725734001547   18.70550566244862
N        18.07716532376051    9.73538514629497   17.34343908659962
O        19.17862245172351   12.37413122855216   20.09836052349713
O        17.02316293021286   10.45367122097747   19.89205012542273
O        22.70908761671667   14.62126904892537   19.90346668672121
N        19.95220181463396   11.59320972529496   17.48106477994762
O        14.35117360372455    7.34788421658480   19.10013402756571
C        16.13792549708493    9.60398530812453   19.61079267312557
C        19.10403937530865    9.65652010508698   16.30352420163929
H        19.90920649879654    9.00092463234547   16.67599770991048
C        19.68956396795605   11.07919570373783   16.13879756063871
H        18.89866461362304   11.71236426939901   15.70133094871788
C        23.58174807887668   13.23971815095128   18.21940499536529
C        14.79155647107851    7.40391737396385   16.79824277477578
C        20.95345249333119   12.36220920527017   17.77104797641620
H        21.67185207452102   12.58999798658686   16.98643295946895
C        20.87537099882686   11.05301375697496   15.17137148219136
H        21.67062183898673   10.42685787038667   15.58203915542810
H        21.27142147649980   12.05902568501177   15.02612415979520
C        15.05607353515006    9.44877125827785   20.64411643465437
H        15.17816226225162   10.22538157291132   21.39570206728773
H        15.13344048026105    8.46909123752527   21.11058960406322
H        14.06937646472413    9.50814987564790   20.19265779796474
C        19.81136194783560    9.11885097562858   13.96549746020410
H        20.57347999536896    8.42626933136556   14.32929147336341
H        19.47069029526810    8.75929272853244   12.99343722165830
C        14.57472587091456    6.05772963965667   16.52377345750138
H        14.63312311870234    5.34609115997073   17.33383098999949
C        16.10133276543067    8.81649438450961   18.42319717737741
C        17.09941669502133    8.88628822091204   17.42265064933468
H        17.02578585087197    8.12016859497474   16.65352036208833
C        21.20930526938746   12.99546298711800   19.01217891683173
C        20.27132496360119   13.00059686539701   20.08437478897165
C        15.03918949152207    7.82835195757538   18.21395462164902
C        22.48356190160628   13.70875905987183   19.12497487306540
C        14.68274070904827    8.33554002642484   15.76843454707158
H        14.81538705754616    9.38656659007832   15.98361258472422
C        18.63735501547707    9.13171869807260   14.94213226122431
H        17.83661874894015    9.77079996884287   14.56368446885380
H        18.24758278437566    8.11712333037148   15.03105866609719
C        20.55968646570839   13.80234607090028   21.32369726851220
H        19.78886313035931   13.59265222959297   22.06187045706641
H        20.56378000820892   14.86332332515703   21.08299840102588
H        21.54253842708086   13.56513172299419   21.72317327485352
C        23.86299883803134   11.88401606445401   18.06622685835475
H        23.25668077694887   11.15167105536337   18.58086034478450
C        20.41906129496780   10.50845126856729   13.81929603794022
H        19.67660733388463   11.18559932082972   13.39155477781841
H        21.26932605291814   10.47158381409006   13.13677838222129
C        14.20678162799648    6.57260819896542   14.21114869114504
H        13.98550186918407    6.25029986803496   13.20425304276609
C        14.29646864288619    5.64296283659760   15.23399655673748
H        14.14291611263775    4.59412959903147   15.02677241205368
C        24.39362568360090   14.17832921866884   17.59174486039657
H        24.18498571004080   15.22755850657572   17.73877733705278
C        24.92305627614136   11.47896690039867   17.27607998693246
H        25.14051988087356   10.42626800227822   17.16598694544275
C        25.70810764904776   12.41953853464439   16.62840359265937
H        26.53087065628677   12.09942882108330   16.00608641972869
C        25.44384146636514   13.76952936496853   16.78993291629596
H        26.06109034761442   14.50450263407300   16.29441036922712
C        14.38939911564785    7.91931696612516   14.48272489316823
H        14.30175836097598    8.64684923845146   13.68872826015444

