44
CSD_code = KIXVOD | q = 0 | S = 0 | Stoichiometry = C19H17Cl2FeN5 | MND = 6
Fe        4.84214929095543    2.70192482819881   10.17152818474997
Cl        4.99591470233324    4.51932903245333   11.35312246817790
Cl        5.77292298949302    3.78667487678820    8.48545756037942
N         6.55546567022146    1.99732173797970   10.61246431800769
N         4.60588537085790    1.09991801937962    9.02890343991527
N         4.22229080372389    1.63837140246060   11.59616364232917
N         3.12145137027155    3.12615131129516    9.57884407099674
N         2.08553254952207    4.50312431714828   12.62442085091190
C         7.35422929990718    2.35469790493709   11.61285812428567
H         7.06782139719494    3.26177956153224   12.12470638928888
C         8.47807318308350    1.62919807111186   11.96294952279202
H         9.10080674128174    1.96144054622703   12.77746626407274
C         8.78383323836303    0.48120689096612   11.24880185424056
H         9.64910883324036   -0.11400130955225   11.49632352577092
C         7.95816064291259    0.11803314524579   10.19391708897252
H         8.17059424553703   -0.75758626867081    9.59965797268283
C         6.85979084990027    0.90453113788383    9.89741894221211
C         5.96365957519225    0.66210328270114    8.71548181722883
H         6.33771814157915    1.31591136988891    7.92089554017019
H         6.00476285687694   -0.38172401669087    8.37904051231913
C         3.85108083243116    0.10182052031545    9.78867964856703
H         4.18753266325858   -0.91659926586084    9.55753496810421
H         2.79427518641151    0.17465679108326    9.51083624786916
C         3.94447544653585    0.36906984847477   11.26359717657695
C         3.71410623065261   -0.61466950350797   12.20700822927686
H         3.50259395347094   -1.62407429733948   11.88772336254492
C         3.75144009176676   -0.28412890880147   13.55386810857793
H         3.57385419180625   -1.03349319873213   14.30900612667353
C         4.01689458629439    1.03420739856046   13.89441452767475
H         4.04384466616011    1.34978884592170   14.92419819072831
C         4.25084379705352    1.95416872287895   12.89263714928296
H         4.45409687705204    2.99220443374261   13.10515751294533
C         3.84102635550233    1.59295219592129    7.87908477127304
H         3.36563795595729    0.78332114919298    7.31038015036102
H         4.52932194595314    2.14218991898888    7.23051567752304
C         2.82709584189655    2.58531852026412    8.38366665488756
C         1.69043393265691    2.91855457342224    7.67565115555961
H         1.50720069823484    2.46913715809682    6.71213751095064
C         0.80354051401589    3.84885934783534    8.21186116917753
H        -0.07064513020496    4.15692795956849    7.66075451707292
C         1.05129387092409    4.33477852226348    9.47952775034909
H         0.37170987930408    5.01336948532305    9.97013944034511
C         2.21048076822695    3.93207488243953   10.14784466875064
C         2.31959309219233    4.29415905866485   11.51735319542448

