47
CSD_code = KIXXAR | q = 0 | S = 0 | Stoichiometry = C18H20N2O5PtS | MND = 6
Pt        2.19563593662177    4.11180327183929    3.17806346574495
O         0.53268173709219    3.05382861607040    3.39047672916243
H        -0.17247590501411    3.71274167412737    3.42354158593681
O         1.01141599129101    5.63469648356764    2.67088469855491
C         0.79823261939736    5.29764681176427    1.32785163160166
H        -0.27196018320260    5.09568581033090    1.15317301258711
C         1.73085341936743    4.09382888924145    1.17278223400326
H         1.25721985577919    3.14491110911419    0.90891731432684
C         2.79946976112147    4.56831360339915    0.20910748244855
H         3.74228499704993    4.02634968486627    0.26249827146561
C         2.11738765116795    4.53820036495067   -1.17532814725192
H         1.64029672226324    3.58054360040067   -1.37962477895791
H         2.85708568387630    4.72096438810179   -1.95430478833340
C         1.09947869178910    5.69641784349063   -1.08879190203124
H         1.28190873636815    6.43951685510506   -1.86450217284696
H         0.07141076073392    5.34862027063343   -1.18934354364675
C         1.36127393552748    6.29559000286194    0.29980472523444
H         0.99652923307286    7.31027271788384    0.43897224116205
C         2.86216669956112    6.07840903740476    0.45843416475825
H         3.22050721480763    6.33570290748498    1.45016439426350
H         3.45013975581186    6.59954108407093   -0.29507158970564
S         5.13499994088718    4.57873550440830    3.43345425107302
O         3.91863282103275    5.37688412108109    3.19466539735500
O         5.34859347357430    3.57508725264922    2.42249864625732
O         6.25913105538583    5.38678089707845    3.80401804410421
C         4.72846024359964    3.59697316603559    5.01960936379766
H         5.68204337901896    3.47808857820064    5.52847745381038
N         3.23113590395715    2.35765492037534    3.59198972462952
C         4.21637689185459    2.31952189674854    4.49338542462600
C         4.82516088582156    1.11299341902483    4.83572105472252
H         5.62395174966976    1.10969662828057    5.56086081643660
C         4.40496168506088   -0.06032370084497    4.23924481411462
H         4.87138930724189   -1.00059963491022    4.49128874259933
C         3.37740056879909   -0.00007906212974    3.30961721629072
H         3.01895993699934   -0.88742578079899    2.81409074244516
C         2.81916034618072    1.23042089233568    3.02053604928381
H         2.00347422796292    1.32576960070635    2.31845738996004
N         2.52983873950934    4.50821466668219    5.42185919669934
C         3.82128748667218    4.49938935919956    5.75516140768122
C         4.33217378136242    5.38337579316915    6.70562535217396
H         5.38461147435642    5.36764905186730    6.94015956913786
C         3.47729436470023    6.28666343210731    7.30835315944822
H         3.85309013744382    6.99039963877685    8.03601197426225
C         2.13318447748242    6.27815331845009    6.95981482910652
H         1.43578813403107    6.96818530074282    7.40623397234897
C         1.70851837624431    5.37132625692676    6.00618016942474
H         0.67653729666659    5.32437945713011    5.68628020973282

