23
CSD_code = KIYBIE | q = 0 | S = 0 | Stoichiometry = C8H8Cl2HgN2S2 | MND = 4
Hg        4.03174716062024    1.38381990446692    3.91943452140144
S         7.40465994085016    4.36301777456511    6.08670908397087
Cl        3.59794303591768    1.71129794259957    1.70682977406409
Cl        3.29491035880169    0.80569982678507    5.99283361153938
N         5.88357578359917    2.81341577280304    4.76231979063537
N         6.20427176731353    0.29050155566744    3.59539603159759
C         7.12172797153291    2.23033038250802    4.73912114206796
C         5.85806837536711    3.92217325691452    5.42352976204314
C         8.07712746726298    2.93961957758460    5.40830854819562
H         9.11220686149523    2.70508102166745    5.54668067726179
C         4.65688479208006    4.75876057960055    5.62634420170210
H         4.82544295775160    5.76976429832795    5.25788827162490
H         4.41593379910585    4.81886550325442    6.68722197474221
H         3.81151525412872    4.31598484411426    5.09733456458953
S         8.21113691547120   -1.10100213336535    2.89344318330457
C         7.30218697234899    0.97101139996196    4.04251895882762
C         8.48703416982404    0.35621800775204    3.75274892252611
H         9.48220400507480    0.67683703752781    3.98123607460169
C         6.50252074257210   -0.80295955629993    2.97337702648546
C         5.50970236801410   -1.71870085427951    2.37377660885185
H         4.89659695754015   -1.16807845105510    1.65781571430062
H         4.84550506845633   -2.10486122661794    3.14850875946088
H         5.99939727491882   -2.54829646454190    1.87142279626503

