109
CSD_code = KIYHAC | q = 0 | S = 0 | Stoichiometry = C60H36CuIO6P2S3 | MND = 3
I         5.09690453358548    6.63671872787763    2.45091472368741
Cu        3.09417771558652    5.24889253779826    2.05918444042903
S         4.45781296283572    3.41483328423066   -0.85053630796810
S        -1.59841266646727    5.48234968483899    1.43035077678718
S         3.14169657356185    1.93153582511712    2.12855544090056
P         2.27280485225154    4.95823783746497   -0.13193451120345
P         1.49057662488853    4.00086258071362    3.03269462143121
O         1.55708514192657    4.07261224407039   -1.30641360278271
O         3.07492600182452    6.02400986828730   -1.08726515870209
O         0.90716668474342    5.81846273915651    0.03115067893968
O         0.46676409568160    5.10227087845172    3.59754690636347
O         1.57577505061024    3.10490778878427    4.40596020525666
O         0.41181116043342    3.08559831958863    2.20763404897564
C         2.21096919428104    3.55779647401683   -2.37543154290252
C         3.55305114737143    3.25967653496302   -2.38115978139894
C         4.17047569206869    2.72123989146356   -3.53627327989134
C         5.53786790219419    2.39115269038716   -3.58259162480322
H         6.14594673022174    2.56522133055856   -2.70926540916398
C         6.09203539359545    1.86038815854605   -4.71463759684608
H         7.14264043150809    1.61200541569569   -4.73478253037803
C         5.30728045262414    1.63641404947527   -5.85402945645937
H         5.76032713968416    1.21611020213264   -6.73949539560479
C         3.97690669132156    1.95187305081306   -5.84071171972508
H         3.36285534065059    1.78741558652463   -6.71442461792609
C         3.37447945308885    2.49905172609246   -4.69079092644071
C         2.00128791037338    2.82262653206110   -4.65438042896298
H         1.40333734981666    2.65385992767788   -5.53778606235778
C         1.43330407007549    3.34197914126370   -3.53148578653473
H         0.38820725309815    3.60370736843121   -3.48363917107367
C         4.43699825438979    6.11081109183953   -1.15165871745434
C         5.24606957149086    5.00523245035833   -1.05767555160916
C         6.65324137179080    5.13256173418175   -1.05304789471422
C         7.51808795652708    4.04093584192903   -0.84756301824313
H         7.09055735429006    3.06722098751116   -0.65818905956268
C         8.87386804548098    4.21486256937620   -0.85009982354440
H         9.52764172183904    3.37141294111767   -0.68442274705675
C         9.42693054958096    5.48697441250571   -1.05431452088432
H        10.50004156666488    5.60600156925107   -1.05130300595243
C         8.61186386402125    6.56824728299681   -1.23901915656538
H         9.02807502457074    7.55502272501990   -1.37649106136357
C         7.20985792892223    6.42611133488831   -1.23797948537111
C         6.35120084471778    7.53249515968069   -1.39720548923121
H         6.78304708823081    8.51188022332136   -1.53315235938046
C         4.99652484035689    7.38555033954178   -1.34489591877232
H         4.32876121088537    8.22865441906973   -1.42946485223103
C         0.73478233355756    6.77935371423514    0.99175204286032
C        -0.43359432764444    6.79198160741457    1.72166813404398
C        -0.68281241142842    7.80795402535145    2.67646966509499
C        -1.90323285411377    7.93526559454533    3.36943371153546
H        -2.72136681978564    7.27242729616627    3.13236544462691
C        -2.07194742368824    8.90348457848841    4.31997898206138
H        -3.01556437543865    8.98791162075583    4.83851653428969
C        -1.03200795799374    9.79282710816094    4.62482390521057
H        -1.17884174054613   10.54272583721177    5.38771186137129
C         0.15059338192535    9.71914982015869    3.94422943380253
H         0.95316540927961   10.41119754233607    4.15261228224832
C         0.35410931878598    8.74187930447384    2.94878031025361
C         1.55104352264568    8.68459713165184    2.20808480569433
H         2.33777570725280    9.39259649715338    2.41972128531510
C         1.72394381097900    7.74731957359084    1.23079680940155
H         2.61961079148005    7.73420860083490    0.63032644248965
C        -1.87445637009382    4.90609871013132    3.09155646636543
C        -0.83212100704619    4.80016452431975    3.98490268269849
C        -1.05949077581868    4.39787629565186    5.30892354601697
H        -0.21146309383996    4.36263995608234    5.97497103545583
C        -2.31622605417354    4.06254162418752    5.72272142388009
H        -2.49033659039811    3.75035140731520    6.74169109801932
C        -3.40437869717789    4.11002415129333    4.82722681129842
C        -4.70841220129867    3.74722050324320    5.22222005605190
H        -4.86405012357081    3.41553832979750    6.23869505695848
C        -5.75328032154218    3.81313958076025    4.34345498393555
H        -6.74855364034043    3.53448002143587    4.65639702055718
C        -5.53955965665541    4.25056332037375    3.02855447065709
H        -6.37307939566869    4.30647309417478    2.34442552154459
C        -4.28652412746964    4.60734376186837    2.61297372710391
H        -4.11980903651770    4.94482681708556    1.60077218878018
C        -3.18768237815521    4.54349721547932    3.49227876274162
C         1.75525887759796    1.75969873691627    4.46118074397744
C         2.37584167281293    1.03373401206785    3.47237403433268
C         2.48177430311306   -0.37621217773626    3.56778442144185
C         3.09513135021088   -1.16480886193787    2.57642191162291
H         3.51018612701914   -0.68219695003850    1.70684141905501
C         3.16732255651193   -2.52437147146045    2.70698114249290
H         3.64031413018968   -3.11429208082525    1.93626468976672
C         2.63375031947310   -3.16127545133235    3.83548365224570
H         2.70089812951469   -4.23518095621741    3.92373636659900
C         2.03556416401469   -2.42227547685650    4.81798011886885
H         1.62254917785135   -2.90109602955450    5.69384171719153
C         1.94226513536320   -1.02012468142455    4.71363124310277
C         1.33324895052140   -0.24186489540407    5.72115385433567
H         0.93671517880121   -0.73834160065974    6.59421597368179
C         1.23447920608052    1.11100632732381    5.59911528595129
H         0.75928999285822    1.71927101099338    6.35229582964561
C         0.67697244213488    2.36239694914664    1.08379310326789
C         1.88945589168788    1.75097943711943    0.86867368428404
C         2.14070975334355    1.04017745497235   -0.32766022257781
C         3.40288664542472    0.49886069530904   -0.64327896272834
H         4.21662626170936    0.63408758741137    0.05342195221497
C         3.60956948107315   -0.14358999771399   -1.83218492685899
H         4.58596249717177   -0.53652413751244   -2.07169350177907
C         2.56316653779610   -0.28674309526745   -2.75390139782890
H         2.74566769478891   -0.79309947714928   -3.68971254448591
C         1.32604740751097    0.22076049940008   -2.47185596526800
H         0.51611344335743    0.12175691229570   -3.17966820527257
C         1.08074238439528    0.90403372636362   -1.26325868476536
C        -0.17270349610583    1.48498050601483   -0.97735817969771
H        -0.97369910320208    1.36892841116172   -1.69208493193426
C        -0.37185361409493    2.21156003521038    0.15926580986350
H        -1.30951447154901    2.69972039462348    0.37328979718529

