55
CSD_code = KIYQUE | q = 0 | S = 0 | Stoichiometry = C28H22N2NiO2 | MND = 4
Ni       10.34695467895337    0.57751841635096    6.07157175275835
O         8.78203195718943    1.07451408976648    5.20152537501985
O        10.48485282827294    2.30686450589950    6.70076666926084
N        10.24469196938961   -1.13842463949029    5.40025145636659
N        11.79310180122070   -0.00603765083855    7.09553560438356
C         7.90799584489448    0.34080542605495    4.62549052211509
C         6.69015708266231    0.92977052191669    4.18708647490821
C         5.72505407938301    0.19237515863864    3.56197159437447
C         5.90288417941700   -1.17778686053610    3.32074421468519
C         7.06207339104196   -1.78422614484454    3.71718239237554
C         8.07820158035821   -1.05950768363548    4.36978564570043
C         9.28343477997950   -1.69940970345628    4.74055032730002
C        11.49919903479830   -1.84969917955844    5.56071809726769
C        12.45725844166300   -1.48270136995265    4.44406979503247
C        12.50485374263007   -0.18859375435511    3.93931041716186
C        13.41725404730878    0.14413813421437    2.95472431922009
C        14.29148312869577   -0.81191361953333    2.46516970526440
C        14.24636732666656   -2.10333879555603    2.96115715634220
C        13.33272383144029   -2.43782283735010    3.94451511626047
C        12.08212387229567   -1.42895315029354    6.93896829940015
C        13.54125965130938   -1.80568884825758    7.03809933726660
C        14.54246521438108   -0.98095344774920    6.53799409142117
C        15.86493307078506   -1.38200415077700    6.58525436804391
C        16.20347804250111   -2.61090057508540    7.12594065749338
C        15.21208118558643   -3.43699385278084    7.62591306446305
C        13.88871968976568   -3.03520022311118    7.58273072048266
C        12.43349895520304    0.65989466680599    8.00329489032156
C        12.26771930960932    2.03842798699834    8.27554442101466
C        13.08188957063819    2.66479337025069    9.23927212762348
C        12.96217256708695    3.99981901341344    9.50860321080665
C        12.00955139909221    4.75969545665813    8.81465842819542
C        11.19796585639833    4.18667751951929    7.87701839528494
C        11.28244776052143    2.80128490627207    7.56888307890154
H         6.55921834846705    1.98419436948565    4.37553673150205
H         4.80765141256153    0.66869587668215    3.24638043497219
H         5.12806859637896   -1.74208489182898    2.82496275860891
H         7.21741659260850   -2.83933807789485    3.53675639671301
H         9.40618072345358   -2.73903937340247    4.42716971822483
H        11.33940990657539   -2.93845194300445    5.54684494121253
H        11.81792955276125    0.57610552574664    4.32014306262413
H        13.44609698825071    1.15290909092378    2.57098444961764
H        15.00466443927058   -0.55107196754970    1.69763094456068
H        14.92433339169507   -2.85374497544416    2.58277075124513
H        13.30592985088796   -3.44596762574509    4.33344955531708
H        11.52038444244047   -1.97424313630750    7.71432522867801
H        14.28729661260537   -0.02197734381809    6.11252193609191
H        16.63306080007127   -0.73182128848498    6.19442064153230
H        17.23657027167633   -2.92268307358153    7.16015181476964
H        15.46799357462740   -4.39565654853726    8.05227565559521
H        13.11760012832930   -3.68330598258135    7.97570536270923
H        13.17677579219076    0.13493015611864    8.60639654632683
H        13.81483786331212    2.06417845818786    9.76088744554412
H        13.59274149315598    4.47097451016236   10.24683414384131
H        11.91774123643578    5.81493752820211    9.02944122251894
H        10.45981811110956    4.76433802707165    7.34230853128564

