57
CSD_code = KIYRAN | q = 0 | S = 0 | Stoichiometry = C20H22N4O10Zn | MND = 6
Zn        6.55423660312153   27.37840234329171    6.09825414964256
O         5.01329276873250   28.25809659861591    5.22980481846395
O         3.74198395193141   30.05089498582625    5.58825480146730
O        10.06899795003647   30.60718233750908    8.97813025771522
H        10.78860800004184   30.98634929685380    9.50721762797872
O         9.28478482912434   32.69576946039557    9.03357989144846
N         6.87590633804286   29.22332625835086    6.87629746133444
C         5.95094343622719   30.06543850819751    6.43025526002915
C         5.99952506942199   31.43092207438601    6.68821336888024
H         5.21111768902602   32.06135996844662    6.30748550157667
C         7.06172492191643   31.92670655022690    7.41750195422443
H         7.16649602375218   32.97882706332365    7.63886101856759
C         8.02708309176387   31.03308294948434    7.88647916125579
C         7.88673170936025   29.67846043008513    7.59466586592821
H         8.59342411872898   28.94271067342057    7.95044130923585
C         9.16753904166398   31.54958023543376    8.68368436407861
C         4.78637649099269   29.41773099566939    5.66348267562691
O         8.08685805929360   26.48309822535391    6.92966083705364
O         9.42771367070478   24.76489576855658    6.48315496577418
O         3.05749361139465   24.13909342719755    3.15384798036479
H         2.34944573003410   23.76787190932174    2.60372326324271
O         4.04097083926218   22.17772181559170    2.74583870868100
N         6.24373746353391   25.54872104561704    5.25242538087656
C         7.24401183841422   24.73665849437855    5.57396512789272
C         7.29091105526306   23.41063313835086    5.15895686449267
H         8.13809083963935   22.80631360914050    5.44346776468414
C         6.24361954176359   22.91960732979520    4.40479455297106
H         6.21250581045358   21.89569989920352    4.06176393180540
C         5.19355936501300   23.77931126219015    4.07570205173508
C         5.24317971895971   25.09955163053188    4.51733734666446
H         4.47332050286786   25.81515782102309    4.26666407190914
C         4.06464744821710   23.26630261905675    3.26003140159391
C         8.36432674869492   25.36891207874558    6.41321720963192
O         5.10980316318444   26.90890823649367    7.62275871446930
N         3.12971232290873   27.98894227508824    7.85711167291249
C         3.92045594614564   27.05517569468331    7.35031564276572
H         3.39752504055803   26.36381647647826    6.67147989777674
C         1.80156517305840   28.22559823268566    7.34864893591544
H         1.12524748750803   28.44489702661945    8.17546169231166
H         1.44549066528015   27.34820762387315    6.81364169057784
H         1.82570028188222   29.07584051038427    6.66083802395500
C         3.65119040233012   29.00061784084918    8.74659030575762
H         3.05442083504189   29.02894054320945    9.66015853810294
H         3.61399570406744   29.97834568564415    8.26239313947600
H         4.68126300061761   28.74860211174613    8.99138633861714
N        10.05197262589695   27.00508843276076    4.47474660066574
O         7.94190749064626   27.84670274496836    4.49856678359161
C         8.79620472715160   27.08013954677052    4.06293532488811
H         8.57165779782395   26.39538425135535    3.22528639337249
C        10.93076499418999   25.94199962313975    4.05913610539337
H        10.97467294027901   25.18452674503363    4.84830622937797
H        11.93080225782945   26.33873079877995    3.88245762290013
H        10.55919341853173   25.48362613333612    3.14482435087525
C        10.50381562112094   27.78795242366835    5.60161240801807
H        11.50657462580989   28.16593362372320    5.40278371285674
H        10.51377167816478   27.16853233474537    6.50092874524236
H         9.81432752263138   28.61600028037975    5.74607018338201

