49
CSD_code = KIYSUG | q = 0 | S = 0 | Stoichiometry = C15H24CoN5O4 | MND = 6
Co        2.16720814369972    1.13609692676845    2.26397142227205
O         4.89178056244867    1.50643038141636    3.13106639980803
O         0.87184456169901    2.35980161290630    0.09513413630713
O        -0.55684063942859    0.73942690291987    1.37621046388118
O         3.38390946496769    0.06583504784184    4.55625198272952
N         3.91901183111884    1.80009072825993    2.23132295733762
N         1.98373132827230    2.20890368927703    0.73121546232503
N         0.41999515935881    0.43596340553075    2.26931120342161
N         2.32970253405168    0.07862609539628    3.81348564355567
N         1.49756903585122    2.83447809053995    3.50999213025612
C         5.49131233470809    3.29954133231809    1.08158025043292
C         4.17441470661776    2.62657690765742    1.27280239727240
C         3.05406082535144    2.87420334709599    0.40610217069309
C         3.11099590113526    3.83141049686167   -0.74048520544743
C        -1.14151144030803   -1.10511589384631    3.38404158240266
C         0.16820506240793   -0.40989833958185    3.21501682788776
C         1.26796915107459   -0.61314189549432    4.11842827788064
C         1.18910971051027   -1.51434046530584    5.30935047731762
C         2.80994090347322   -0.39094765322474    1.18535762398198
C         2.12115219418526    4.08106724354831    3.23828311834802
C         3.31037349207277    4.41858792589997    3.87419702221018
C         3.95147632147819    5.60149668028387    3.55662158587749
C         3.41031726097090    6.45783421501603    2.61189272750927
C         2.22035746956542    6.12642296730229    1.98541245222275
C         1.57374905475494    4.94451412501664    2.29650835039783
H         6.20368023930343    2.92055926467481    1.80913679665605
H         5.86537241551903    3.11655482199648    0.07637366711464
H         5.37934244504191    4.37477254949570    1.21479424029473
H         2.13329726567265    3.85877425058402   -1.21665204815733
H         3.37027599450410    4.83055175803787   -0.39271921998240
H         3.85435966308742    3.51503159975123   -1.47090884514160
H        -1.81863377763238   -0.80560563569256    2.58855382891929
H        -0.99702322579336   -2.18335195204970    3.34698937935867
H        -1.58326852563019   -0.85702435287869    4.34794028853793
H         2.14950072492885   -1.49493141257336    5.82004017260554
H         0.41088809213236   -1.18734067019971    5.99818165476233
H         0.96852352854065   -2.53556489433655    5.00326751829975
H         3.13023428942815   -0.06214957114076    0.19838051242810
H         3.65706559055159   -0.86226645199362    1.68074379373152
H         2.02809648121834   -1.13740642404938    1.06028828813871
H         1.68395621901860    2.53690623791060    4.46523381575328
H         0.49354218621596    2.89048774163404    3.35318560409765
H         3.74031871166092    3.74468548749903    4.60078144431465
H         4.87841186948350    5.85347695528543    4.04935986571408
H         3.91383668984599    7.38045835376287    2.36515469890217
H         1.79106521809938    6.79022919359361    1.24994398438457
H         0.65498743364115    4.67859824060425    1.79436359493749
H         4.42497614319406    0.86896350612654    3.80548257702299
H        -0.09284060206956    1.41062752955323    0.71961292642690

