105
CSD_code = KIYTER | q = 0 | S = 0 | Stoichiometry = C35H56CoN4O8P | MND = 6
Co        2.25213275133502    1.87954064326942    3.49532588872712
P         1.07140891903836    1.50637961175177    5.51513318531980
O         4.02544905908964   -0.24129237528218    4.31149632430296
O        -0.22639368805541    1.62232921637731    2.16893491394873
O         0.40445562947540    3.97172389647800    2.80577647272714
O         4.70470535531083    2.12029316724094    4.83158616321655
O         5.23579833742548    3.07648988484750   -0.92296168176523
O         3.63881140622195    1.51766258173751   -0.94369766973642
O         4.32613801823582    5.28247398173197    1.54747108834012
O         5.63882766968868    3.48352040988146    1.82131400139357
N         2.90433661174870    0.12679687553229    3.64350766340773
N         0.83846528622111    1.02590710665019    2.59055292461030
N         1.61927015204384    3.61846969892098    3.30634184789244
N         3.70035658413772    2.74331120743905    4.31157818938295
C         2.61382729460354   -2.19824628797689    2.89561641674178
C         2.22538779236090   -0.76094563128813    2.99480118583884
C         1.03305417069509   -0.24664259036123    2.38385275266350
C         0.09520667782926   -1.10100350053038    1.59237494568163
C         2.09527513482698    6.00315436061819    3.68211953764097
C         2.40103341942151    4.54637351495476    3.75591262810925
C         3.61117365221031    4.04324698733825    4.33654552783804
C         4.64320021895690    4.93585552739251    4.94871328350505
C         3.32099642310189    1.88956979729706    1.76218506788525
C         3.55397751378944    3.08991634939628    0.83719274407533
C         2.28563840401839    3.77681179759549    0.31525209684857
C         4.26502134121743    2.56980771978060   -0.42393530008868
C         4.52636840020563    4.09793859987662    1.44668577762397
C         4.17183705374209    0.98499751782920   -2.15689026586295
C         3.56597657215399   -0.38854711112789   -2.37786916896620
C         6.76255997150001    4.26636584062138    2.22082416267721
C         7.88688332728777    4.08082085760999    1.21328736405869
C         0.41324103761804   -0.19948012474996    5.44975697149086
C         1.14977410169909   -1.27879473964358    5.93308911220193
C         0.65621865923793   -2.56822793937336    5.84222359926322
C        -0.57266531618449   -2.80689355198190    5.25079456784472
C        -1.28929835164905   -1.74762728802458    4.71962587573489
C        -0.79706353339702   -0.45802880343054    4.80780212687136
C        -0.49740990624971    2.49564267576876    5.76096286356978
C        -0.24148304861700    3.96623267630877    6.09135803626190
C        -1.52710087557096    4.75876941188973    5.86470307192361
C        -2.64459643763041    4.21957265640892    6.75400096696564
C        -2.84687053741176    2.72279096635997    6.52988628643274
C        -1.53806819400819    1.96271986227690    6.74681402041618
C         2.04552024423256    1.45594849856143    7.11138154298353
C         2.66716949299544    2.79407918539365    7.50949565338317
C         3.70964414269861    2.55777858801610    8.60096745900982
C         3.07026993529015    1.89971529011234    9.82051952179497
C         2.35987188376961    0.60653997850160    9.42882234683107
C         1.33090742539457    0.87379026385116    8.33076922817673
H         3.57568171135318   -2.34854682033624    3.37847803227553
H         1.86701616553133   -2.82519096060799    3.38020996606887
H         2.68111550269957   -2.49373873250389    1.85027838412216
H        -0.76571195177024   -0.49918807412556    1.30980820513919
H         0.58400494046337   -1.46487167469629    0.68902879172993
H        -0.23770950826387   -1.95812581203186    2.17480433498289
H         1.06134573436334    6.15125303116325    3.38128009763311
H         2.27629273160550    6.48819465967961    4.63864822125737
H         2.75234009790013    6.45210797700429    2.93716782840781
H         5.49100802371720    4.33021653852483    5.26125159076104
H         4.96804588416859    5.68115716200256    4.22625650679613
H         4.24018073457956    5.45511995600696    5.81870763411382
H         4.31456170829237    1.52457540508259    2.04012648256607
H         2.85345011315916    1.12050648802403    1.14326654692923
H         2.48616260532435    4.26184332492581   -0.63903733470324
H         1.49655545289906    3.04274405217650    0.18037482782625
H         1.95629733459261    4.54629461327820    1.00416212012051
H         3.92182528434719    1.66558241506934   -2.97867773533873
H         5.26298819618341    0.93632110329817   -2.07341238002292
H         3.93810617448026   -0.80800947633440   -3.30793828029743
H         3.83161299114305   -1.05029670211030   -1.55761548540318
H         2.48308193810718   -0.31313220308017   -2.42852303160768
H         6.45974282261186    5.31675779756354    2.27584877214247
H         7.05697345585991    3.90952167377445    3.21160615707023
H         8.72942436829783    4.71295029278897    1.47971052504697
H         8.20774905829762    3.04277831638450    1.19803762359868
H         7.53368294706950    4.34616172737765    0.21997114836767
H         2.12499781700036   -1.12587270132896    6.36834875208782
H         1.23844980890333   -3.39048634962945    6.23240197889857
H        -0.96036930697540   -3.81309970125751    5.18760584515275
H        -2.23535154720986   -1.92523867483729    4.22919875893883
H        -1.35482467756585    0.34580306772772    4.35242925194422
H        -0.93883748186160    2.47018155649574    4.75376079832647
H         0.55978680932948    4.37317824116408    5.47696626183631
H         0.05150977620930    4.06650826071007    7.13794961003229
H        -1.81589063620604    4.67977969283764    4.81497019852432
H        -1.35572506715703    5.81434498583557    6.08576270510849
H        -3.57428813960548    4.75369847452816    6.54888953785915
H        -2.38644813134359    4.39362800786776    7.80194186547508
H        -3.20065878204251    2.55250864963955    5.51066117608030
H        -3.60926715229559    2.34578834958556    7.21527622085021
H        -1.70602593855394    0.89246953945242    6.62150928692409
H        -1.20309319019710    2.12889921788974    7.77126338838312
H         2.88394774595371    0.79518681858893    6.84680150255963
H         1.90159603427585    3.47021480666374    7.89201803832515
H         3.13934571948524    3.26906179580180    6.65325967073351
H         4.16339636242456    3.50839477655917    8.88899541667299
H         4.50108490872509    1.91752741602706    8.20648809408962
H         2.34534115183247    2.58788305808395   10.26308792115634
H         3.83243818741090    1.69153997713385   10.57391312842841
H         1.86405294284162    0.17605227905582   10.30173747428411
H         3.09469603584937   -0.11833444970579    9.07129925703991
H         0.60155489404928    1.59263654755762    8.70655553297764
H         0.79909044225472   -0.04666961294001    8.08490027113324
H         4.45493218962301    0.67500480820195    4.59524403799038
H         0.00459452573758    3.07511782214547    2.45984314939048

