35
CSD_code = KIYXUL | q = 0 | S = 0 | Stoichiometry = C15H12CrO7 | MND = 9
Cr        0.79531399167781    2.52702731450415    1.84618540627175
O         0.86472341719563    1.20011921164177    4.50667656966731
O         2.88341674536820    0.47416042793288    1.29212787767812
O         3.07857952637117    3.82698143994512    3.23829930233370
O         0.25447604336048    5.28419819433585    3.72708522930425
O        -1.34127209453844    6.43096575210698    2.57602160825998
O        -1.48140868396110    3.29906699116920    4.36707591645632
O        -3.14296269022888    4.30451645999148    3.24501171651504
C        -0.78990200278934    5.16447768999331    2.80040631345736
C        -1.78971926627691    3.96545830775930    3.18684747954459
C        -1.28777196744385    3.28044006995121    1.94305447981639
C        -1.38618317263139    2.09192110249899    1.21146321843611
C        -0.56217197390579    2.02540832093104    0.08159273771995
C         0.28592754764938    3.09443814805833   -0.30098419200102
C         0.36781304061238    4.28135264098762    0.44015547460758
C        -0.45079770038049    4.33609605410188    1.57424396372090
C         0.59522556639333    6.65345722010810    3.81268109236152
C        -0.72540592789406    7.34602976444127    3.46491476675731
C        -2.26023037624949    3.90472437431354    5.37877680938674
C        -3.47128640010958    4.48375635115638    4.61308179454292
C         0.78170375626499    1.70082355710976    3.47400185211652
C         2.05769990412392    1.26319167599233    1.47056510217026
C         2.19249977703378    3.34881163024603    2.67566528033908
H        -2.08418900952299    1.30364371988762    1.45929800202518
H        -0.61945455592949    1.15864979942394   -0.56669258305825
H         0.84292256438168    3.00582834446997   -1.22628125454877
H         0.96796485615586    5.11775671649350    0.10384778566958
H         1.37862048472131    6.89474465228828    3.08312412569603
H         0.95260751174883    6.85258167619270    4.82176523460280
H        -0.60672255840617    8.29718534407746    2.94640154692984
H        -1.35210206017491    7.48184035583269    4.35620035419250
H        -1.68492192481031    4.69340692056041    5.87725676507407
H        -2.52862559570812    3.13215049744088    6.09917328819865
H        -4.39721097812292    3.93711246580828    4.80619102165214
H        -3.62245579397495    5.54717680824755    4.82526591410331

