97
CSD_code = KIZBIH | q = 1 | S = 0 | Stoichiometry = C52H40CuN2P2(1+) | MND = 4
Cu       -0.31413403200963    4.28340110987924    5.15046128301883
P         1.42350198287424    5.06423202735428    6.35392131264713
C        -0.29110401875502    3.57087641201995    7.97628992473554
C        -1.97718775766400    2.29857232645054    9.22107723670722
C        -2.62455607735667    2.08092825162270    7.98053106570660
C        -2.02704176087056    2.60242347029726    6.80643611071124
H        -2.49437561538678    2.41580464975903    5.84678193320070
C        -0.75862913622854    3.06979321036191    9.21551703620585
C        -2.56675792173763    1.76161713589562   10.37497955262754
H        -2.10298681632349    1.90230389283143   11.33773945549128
C        -3.82964752772451    1.36032987879523    7.92382133361214
H        -4.30630341867306    1.22075097411741    6.96449369122207
C        -4.38203012579761    0.85376637479023    9.07095737040602
H        -5.30732094204713    0.29996555277239    9.03486654327924
C        -3.74199406223869    1.05368185547545   10.29784353957430
H        -4.18116081615227    0.64811720167886   11.19659724843702
N        -0.93586860695623    3.30330457996553    6.80210382853820
C         0.87471781774518    4.36915914972596    7.94971457570614
C         1.11837350807111    4.13032769136266   10.34340683681904
C         1.55353551340607    4.64348847232426    9.11607444287065
H         2.43811283517278    5.26530594465974    9.08455695855824
C         1.89062048703835    4.43563016997153   11.58614002309672
H         1.45057429645049    3.95081618339010   12.45293260628537
H         1.91099867440680    5.51059563867287   11.76020549637235
H         2.92122933212034    4.09944200881198   11.48263456881204
C        -0.02481316163468    3.36011072392049   10.37453801754560
H        -0.36206837670842    2.97693066466260   11.32445522739828
C         1.69968033835068    6.79959464858411    6.81787269649536
C         3.07967034210677    4.36289359937281    6.12242027824497
C         3.51728692354080    3.22112215045219    6.78615139234088
H         2.90741514352614    2.77878126444829    7.56195227562272
C         0.56830876490343    7.61184081346137    6.78222385660588
H        -0.37920092958000    7.17905119159260    6.48016858952118
C         2.92864762647568    7.33335907357772    7.18784814841508
H         3.81145620475856    6.70945491772394    7.20480639982706
C         5.07086525722072    4.33774371835518    4.77065706193104
H         5.67313960285130    4.76650247814081    3.98381640567270
C         3.85546204091044    4.90611442389205    5.09765950149790
H         3.49457281668976    5.77832984504661    4.56735368355344
C         0.66164316929338    8.94667419135707    7.12479196783240
H        -0.21589958936485    9.57508462007015    7.09528120254186
C         1.88724130524216    9.47691741939732    7.49795193835136
H         1.96471702033770   10.52040937021100    7.76263726852643
C         4.73577575048465    2.65557422479664    6.45198243509104
H         5.07827233137489    1.77526483754222    6.97567726544759
C         5.51300578394583    3.21147605167729    5.44898842902424
H         6.46174330068127    2.76543992783662    5.19209192197427
C         3.01483039572583    8.67220937362784    7.52759466975122
H         3.96768143600040    9.08939452085208    7.81737792295119
P        -2.05175752414026    5.06421531324484    3.94697716638148
C        -0.33713148880081    3.57087485822369    2.32462423566201
C         1.34896593455200    2.29857401250114    1.07985216010885
C         1.99632142560678    2.08092664544126    2.32040439305087
C         1.39880024287141    2.60243108722536    3.49449257775156
H         1.86611417781639    2.41579463047765    4.45415281658395
C         0.13041302349976    3.06980352299071    1.08540241138545
C         1.93857510140396    1.76166602744978   -0.07405367211234
H         1.47479409445652    1.90232049675531   -1.03681290180653
C         3.20142110626512    1.36034139926786    2.37712031367466
H         3.67807859775090    1.22077419157859    3.33644830384506
C         3.75383878468387    0.85381917362733    1.22998179146767
H         4.67910633679768    0.29998169204723    1.26608390204946
C         3.11383632230388    1.05377256650875    0.00308452369195
H         3.55296032532940    0.64812767276343   -0.89565243601124
N         0.30762063785470    3.30330121280698    3.49881592664398
C        -1.50297558171331    4.36912452171177    2.35119383072325
C        -1.74658312093439    4.13033718667533   -0.04250124936754
C        -2.18178589369307    4.64345532671298    1.18483363667180
H        -3.06630616842288    5.26535795156199    1.21632741241984
C        -2.51882817450025    4.43563107736079   -1.28523726843516
H        -2.07878101719568    3.95080400055302   -2.15202209933512
H        -2.53920559544289    5.51059467148326   -1.45931426787402
H        -3.54943789225589    4.09944543548841   -1.18173165175867
C        -0.60338880613881    3.36013029116716   -0.07362427415025
H        -0.26615276846577    2.97690422987713   -1.02352781576772
C        -2.32793412426294    6.79962540308379    3.48319754510186
C        -3.70794602874702    4.36291221739131    4.17844834640648
C        -4.14565086532484    3.22126820790742    3.51457525724783
H        -3.53558133364716    2.77867630041365    2.73905157371114
C        -1.19652891745011    7.61182544267358    3.51874302653703
H        -0.24905420396237    7.17904994769745    3.82093067468601
C        -3.55688971171778    7.33341299665685    3.11322388744940
H        -4.43966005791498    6.70945948071952    3.09599317046079
C        -5.69907846004969    4.33766249109359    5.53028881461692
H        -6.30149125551524    4.76660477266899    6.31694383116839
C        -4.48361385295527    4.90595497796237    5.20338127772381
H        -4.12295479459956    5.77847494164675    5.73337070326657
C        -1.28981059400827    8.94662713317908    3.17603152892023
H        -0.41231035727552    9.57508736457534    3.20582560383070
C        -2.51538933797136    9.47688230235886    2.80282582100877
H        -2.59287877914344   10.52041663234627    2.53831904784594
C        -5.36409915591288    2.65566410544708    3.84880131627795
H        -5.70646726002903    1.77518657605556    3.32528058626235
C        -6.14129570361521    3.21150763835905    4.85184093270151
H        -7.09001469038371    2.76544650162853    5.10876133238713
C        -3.64302120506655    8.67223185439192    2.77333605657440
H        -4.59584069848935    9.08940530262369    2.48342936959614

