97
CSD_code = KIZBED | q = 1 | S = 0 | Stoichiometry = C52H40CuN2P2(1+) | MND = 4
C         1.50412057177387   11.85421021316748    9.84245408024226
H         2.25870558135014   12.01824784499927    9.08166919882121
C         0.56188026058551   12.87524653193991   10.11995350387825
C         0.59668754484317   14.10338873510030    9.43748284755452
H         1.37085838507219   14.26765941825197    8.70246853799757
C        -0.33800990312742   15.06796313708443    9.70800700604425
H        -0.31648435361036   16.01267933738436    9.18729790098276
C        -1.32869006388569   14.82654218417183   10.66455532821436
H        -2.06310046568571   15.59023064251666   10.87062959649053
C        -1.37802877153506   13.63391647540124   11.34496484940131
H        -2.15365934019424   13.48182318369408   12.07771273429802
C        -0.43387601865665   12.62674327934077   11.09590294393898
C        -0.40307986858893   11.35726116094495   11.77894046308228
C        -1.31875106795948   10.99893031538415   12.77826663506018
H        -2.10436939111563   11.68642171547928   13.04833964463038
C        -1.24207186121757    9.79264260600144   13.44124427533495
C        -0.21365339651989    8.90391828302932   13.10879208618774
H        -0.13663661487389    7.96411155975387   13.63813062239001
C         0.69563098044112    9.20352388092178   12.11899326927196
C        -2.21610541729684    9.42421935413203   14.51342422139809
H        -2.99355152016912   10.17595202703685   14.61556161531523
H        -1.70064071036853    9.32540759593072   15.46801797384888
H        -2.68159586464643    8.46568569566826   14.28975906885457
C         1.29524244897304    6.43477661848678   11.67258267824066
C        -0.01144135886399    6.26773344776979   11.22145378703076
H        -0.62213408896723    7.13492707410405   11.00699141428055
C        -0.52865277484591    4.99501768402043   11.06067838584929
H        -1.54709254618736    4.86862607946457   10.72399588119992
C         0.25524351056325    3.88431602694504   11.32835615523851
H        -0.15344396535891    2.89309744940619   11.20524809834741
C         1.56734118288257    4.04578783140540   11.74590121481251
H         2.18226708614485    3.18055078383213   11.94323330888984
C         2.09179316840096    5.31416260576727   11.90510862390077
H         3.11869195606221    5.44719739676607   12.22019166958484
C         2.94549008878890    8.13232037572463   13.33336348076172
C         3.91803880482269    9.12201828531516   13.44999495727739
H         4.11667245692930    9.76667547828090   12.59904243836367
C         4.61851912030089    9.27247041451957   14.63087445782440
H         5.37493820432688   10.03799885755730   14.71816374983872
C         4.35112784112167    8.43339526104335   15.70121449225998
H         4.89948006442470    8.54492076146128   16.62410498198154
C         3.38186566887296    7.44975591768973   15.58879129944316
H         3.17504787995884    6.79830580739611   16.42469717578965
C         2.67486580164403    7.29507409771013   14.40954718200966
H         1.92519812308504    6.52106698212949   14.32522013494035
C         1.97668195682919    7.68337248819197    7.82276522781754
H         1.12706827880159    7.56049032041477    8.48449047461545
C         1.98307384348775    7.02484955058680    6.56807222099001
C         0.91075121602328    6.20909292174301    6.16820509266856
H         0.08062010951941    6.07260689868202    6.84548361141161
C         0.92737841655088    5.60320878025203    4.93933893249422
H         0.10664690313898    4.97643569457714    4.62680940632800
C         2.01430423385022    5.80001896077559    4.08239618248269
H         2.01831836817936    5.32351290447931    3.11391253851335
C         3.07526308436843    6.58880666610242    4.45688989373535
H         3.89772843864335    6.71799251380525    3.77237688733391
C         3.09263273512885    7.21941455606346    5.70971737336566
C         4.17138034614075    8.05010985023021    6.18449713523978
C         4.04986937395478    8.63452004210326    7.46925760964338
C         5.10521664432508    9.43149923639588    7.96686551248638
C         6.23610368016873    9.63502976882509    7.20766170299704
H         7.04186213641521   10.23867221372026    7.60242158124613
C         6.36186215770539    9.07697739323542    5.93092658704256
C         5.33540053457243    8.29641029810501    5.44303016697864
H         5.44193206821706    7.85879553835605    4.46324275435660
C         5.45870901064819   11.85987685505023    9.43308458223959
C         7.60316491577195    9.32585537742712    5.13650907661366
H         8.46196294551327    8.88005630892346    5.63699099279152
H         7.79062753438812   10.39489574482034    5.05072730030876
H         7.52534699115386    8.90232720922303    4.13930006612812
C         5.20311010109441   12.54636638855155    8.24891479690231
H         4.80742724739169   12.01549397945649    7.39302910166199
C         5.46642547007382   13.90175801818548    8.16672044872066
H         5.28025362361155   14.42890303157654    7.24256692229739
C         5.96657063428316   14.58311266337598    9.26458885169893
H         6.17498822831702   15.63967581840801    9.19450977084312
C         6.19094734368531   13.91010690298141   10.45582052008987
H         6.56890078277969   14.44356206967098   11.31503779018509
C         5.92617244797795   12.55710989714463   10.54647704435388
H         6.08859990458994   12.02691338732129   11.47603847447417
C         6.39955467256778    9.31355343047040   10.43089672933228
C         6.13123297856432    8.08551608455521   11.03069549880529
H         5.11467079394729    7.70423777215187   11.01368809053598
C         7.14531255411582    7.37330452997411   11.64051489802384
H         6.93430312505119    6.42364851143246   12.10889480512760
C         8.43309952863454    7.88604852640663   11.65531726310607
H         9.22727189077041    7.33528183514040   12.13578459124033
C         8.70325570537653    9.10606635208588   11.05678425457044
H         9.70779768583505    9.50195200964393   11.06923983778013
C         7.69233885885269    9.82420557185003   10.44267982517641
H         7.90779824323163   10.77978136293176    9.98565791064288
Cu        2.90714635479750    9.31289880950957   10.04846035289605
N         1.52523429477946   10.70881654279412   10.45063409924754
N         2.93914420115778    8.44525824234964    8.24184493665166
C         0.61504226151799   10.43566194542520   11.43144964663119
P         2.07606754120259    8.06908981452282   11.73559007699150
P         4.97209023450658   10.12792799583042    9.65056658111306

