49
CSD_code = KIZCON | q = 0 | S = 0 | Stoichiometry = C12H27F6NiP3 | MND = 5
Ni        1.50913717593437   10.18412589779352    0.14720818512724
F        -0.91210752948734    9.21891027049888    1.07262815241125
F         0.78766102489145    8.49621165122700    2.22357345252866
F         1.82999235261312    7.31597609229086   -0.04492448517116
F        -0.94452767534383    7.30785099590340   -1.13603866127233
F         0.66285306306136    7.82333135081920   -2.45393678419347
F        -0.58230665485595    9.37438668731601   -1.62229981214272
P         2.54274725556699   10.66345697266252   -1.76707934933677
P         0.36677687205781   12.00820105906822    0.76478223827498
P         3.40015518243118   10.01206058619624    1.68869781107190
C         3.72983328414793    9.37521034323598   -2.31054209437798
H         4.47421580582400    9.22511742257413   -1.53031318406166
H         4.21974330525850    9.67267401754960   -3.23698241820172
H         3.19881059293267    8.43798355979363   -2.46371482459138
C         1.59782291857596   10.91687845648173   -3.31958453578589
H         1.06226948807584   10.00948131901643   -3.58367224661092
H         2.28016488728611   11.18041250979448   -4.12684611397911
H         0.87409407205240   11.71713918749983   -3.17697299070652
C         3.62452355530167   12.14781193102000   -1.85474502723917
H         4.30500112805010   12.15718196820978   -1.00840561240149
H         3.00971935789054   13.04349826815269   -1.81296064518143
H         4.19393435334148   12.14437536876607   -2.78279881360702
C        -1.17162295862689   12.27386788492010   -0.19399397006964
H        -1.81612875163254   11.40616310223809   -0.07370273295113
H        -0.92688751108762   12.37292821304645   -1.24946776032043
H        -1.68478682216473   13.16934278458768    0.15468352354529
C        -0.30322601644768   12.07998411265275    2.47080674689520
H        -0.89803875439363   11.19034087930300    2.66348248127151
H        -0.92706350526570   12.96523815420247    2.58948760480347
H         0.51736874455180   12.11227771728259    3.18405309806382
C         1.11261422069019   13.68444556069939    0.65568520362562
H         1.33510672783973   13.91187505949023   -0.38387531605380
H         2.04082901301985   13.70676430687498    1.22219588357336
H         0.42591593945574   14.43156247426621    1.04984695222634
C         5.00402080305517   10.89645835523834    1.47368063703490
H         5.46484559806097   10.59540322488296    0.53556781034835
H         5.67861858476676   10.66236235721951    2.29527382227730
H         4.82769440648524   11.96972582596989    1.44954105841950
C         3.08215343878991   10.45546420813281    3.44528225154159
H         2.19202227959047    9.93620700221409    3.79090039870500
H         2.91858360599105   11.52896568769195    3.51869137548787
H         3.93189316035285   10.17443957518371    4.06559040580538
C         4.04130661498909    8.30803773680555    1.91897959686571
H         4.37488033754272    7.91241485224178    0.96193207424926
H         3.23816433810236    7.67401186531039    2.28570265510093
H         4.86714522696137    8.30564512973952    2.62918416195965
C         0.42224282554524    8.96227974421907    1.00696904736229
C         0.96130463573227    8.37712814770951   -0.16868288332473
C         0.03623000248785    8.21469012200204   -1.33098636700143

