141
CSD_code = KIZJUB | q = 1 | S = 0 | Stoichiometry = C76H57N4OP2Zn(1+) | MND = 5
Zn        6.89756356116437    0.92630366426286    2.45251630094481
O         5.75895694259034   -0.55016727423921    1.68989503952427
P         2.34680319919288    3.26591506295120    2.16644479061918
P         5.24936822137927   -1.86468843306332    1.22924059790586
N         5.49724801073173    1.41640783114463    3.85902258461377
N         6.09447732938285    2.33071251942502    1.20543930224264
N         8.46112187671868    0.71408052764953    1.17436321723215
N         7.87302410255862   -0.20238661506205    3.82877429712417
C         4.40907149031331    2.19130393110445    3.68515960102205
C         4.03582600313608    2.77090841370384    2.45914273087950
C         4.87390247877706    2.88300144730479    1.33067799803118
C         4.55347049273544    3.64626875754733    0.15458806414326
H         3.66422329345370    4.23220853634331    0.00222169201633
C         5.60981764285317    3.53153982649589   -0.68485055918200
H         5.72734381305370    3.96267684833044   -1.65916610542692
C         6.56930910409661    2.68906976006035   -0.02373680007244
C         7.75657414601880    2.25414065882916   -0.60072131335531
C         8.64138919905800    1.34265175261479   -0.01098292045532
C         9.88620493563506    0.93418939858919   -0.60313516055765
H        10.28789492879597    1.30991719804321   -1.52342377509531
C        10.43366896292850    0.02614008514722    0.23773967240586
H        11.37269142239920   -0.48181663646618    0.13995362386580
C         9.52439748508893   -0.11166029666516    1.34398737256009
C         9.74022104829985   -0.95975936561310    2.43241606473988
C         8.94400809369055   -0.99837802846424    3.57808196996758
C         9.15196578983175   -1.89933973711335    4.67991067998374
H         9.91245487822495   -2.65326758932683    4.72917971678732
C         8.20294519128990   -1.61124214625550    5.60087795413882
H         8.03556302795326   -2.08318798889739    6.54920010891778
C         7.41445648089729   -0.53957253561201    5.05580947983284
C         6.32025033491448    0.03806133034040    5.71337745841859
C         5.46887238960810    0.98074330687354    5.15215544449190
C         4.36101092861631    1.58689585268907    5.84025797358377
H         4.13994094541505    1.47057735430053    6.88278931873114
C         3.69729131987468    2.33238597233699    4.92516314390826
H         2.85238369050421    2.97077579190874    5.09245257087152
C         1.11815896106702    2.60476393543517    3.33012173081469
C         0.73711573037782    1.27091547664321    3.22921463960730
H         1.18348617437875    0.63249797835103    2.48063917537598
C        -0.22070781181211    0.76203384599046    4.08856891007428
H        -0.51857265635666   -0.27202328818594    4.00203954779550
C        -0.79970893050930    1.57586789975238    5.04833967851845
H        -1.54893200396757    1.17720272733466    5.71472295620864
C        -0.41788860587608    2.90429172325836    5.15290005633648
H        -0.86522379436407    3.53957925718817    5.90193335073391
C         0.53741090068030    3.42190346720602    4.29793780812680
H         0.83893202520315    4.45648400056972    4.38874117013167
C         2.11454547300116    5.06218312472472    2.14298032707104
C         0.83960575233187    5.61382739879555    2.01868210714564
H        -0.02733654428748    4.96963627760825    1.95496605574847
C         0.68883674273183    6.98809272404086    2.00014340187774
H        -0.29633163684127    7.41766412191420    1.90034478127911
C         1.79844178318297    7.81220704501161    2.11582074548649
H         1.67406942525178    8.88391050042206    2.10156911475511
C         3.06285901135200    7.26398802009671    2.25982260003314
H         3.92362945603072    7.90666148787640    2.36196907061908
C         3.22521010144124    5.89004100126835    2.27510402980073
H         4.20681130662509    5.45144694980996    2.38998061977175
C         1.84105801871379    2.52552062835180    0.58313538453033
C         0.97922639683421    3.17470544077713   -0.29242432489122
H         0.63998256298778    4.17834294350541   -0.08166066936419
C         0.57576603760721    2.54215476377614   -1.45537175683771
H        -0.08645282906958    3.05189690142768   -2.13835694481541
C         1.01821740377412    1.26119905922964   -1.74040766235261
H         0.69579240127234    0.76774409758937   -2.64422554283369
C         1.88350211363561    0.61565980751874   -0.87161647368611
H         2.23501525003163   -0.37937269791132   -1.09643643664542
C         2.30487884548212    1.24580916761730    0.28437168095200
H         3.01239628405739    0.75428866997477    0.93979674106672
C         8.08516339949826    2.74642939208032   -1.95439131534693
C         8.31379467701690    4.09865294555370   -2.18746796624257
H         8.26389376804669    4.79408218316862   -1.36219811054824
C         8.62869471400509    4.54793287434129   -3.45602383052935
H         8.81623600639408    5.59968707100112   -3.61702827792348
C         8.71238013640348    3.66628081216174   -4.52713503207518
C         8.47374548906262    2.31671308252877   -4.29165910425343
H         8.53259270845750    1.61582139628516   -5.11211715924560
C         8.17022662612481    1.85932489677849   -3.02405010159676
H         7.98806800196761    0.80712872129216   -2.85532699187661
C         9.03168752906246    4.15592641033643   -5.90490382106829
H         9.61621407505888    3.41983950791980   -6.45198412850009
H         9.58531347223509    5.09065677834437   -5.86739762369486
H         8.10997554392344    4.33135389646796   -6.46097205028014
C        10.89926668837839   -1.87054082207164    2.36606684157747
C        10.99952428309768   -2.79710309811073    1.33144980183040
H        10.21914811757993   -2.83957913333928    0.58573587000332
C        12.07451052496140   -3.66436168657056    1.26966210347433
H        12.13764906855130   -4.38376119726702    0.46659842411723
C        13.07109928990879   -3.60788108357340    2.22992241522813
H        13.91265488889378   -4.28182908968402    2.17802797719525
C        12.98718383082966   -2.67859182783437    3.25359861119751
H        13.76702488105845   -2.62307736160452    3.99828366430794
C        11.90700203022692   -1.81797339625395    3.32555175031592
H        11.84823583232876   -1.08371280012484    4.11562482696245
C         6.02147220237276   -0.42843188731568    7.08222292286076
C         6.93743093447411   -0.24577875410199    8.11446144252985
H         7.87208583291207    0.25571055606715    7.91009116709777
C         6.64728196380088   -0.68033128750891    9.39289562389646
H         7.36408366569863   -0.52237731486856   10.18556002044866
C         5.44481679601402   -1.31930456416140    9.67676143151015
C         4.53731343219668   -1.50807868892803    8.64161179954603
H         3.59975682339815   -2.00778888168266    8.84000449549560
C         4.81638363332220   -1.06555222858048    7.36224795705624
H         4.10601285964267   -1.22865764870339    6.56337702658152
C         3.86409866383626   -2.39642058499694    2.27834107607705
C         5.15180850184939   -1.81009696440434   11.05990194428532
H         4.08367964000721   -1.94858845415517   11.20754669426439
H         5.52518599607433   -1.11158615176359   11.80535428084405
H         5.64408501635577   -2.76880305587332   11.22620327734615
C         3.34093442115130   -1.46107362687946    3.16160848310994
H         3.75328441118330   -0.46247142664594    3.17053867017478
C         2.33255221040459   -1.82218508785759    4.03685537125836
H         1.94004877731372   -1.09543539588611    4.73377064014557
C         1.83901375582394   -3.11689550734229    4.02219568500256
H         1.05405558142977   -3.40380315006498    4.70583283068768
C         2.36222578198149   -4.05288517673680    3.14295801449915
H         1.98400840323517   -5.06401433799423    3.14408712612272
C         3.38001321112185   -3.69872888953526    2.27579535253980
H         3.81491360890532   -4.43489735738863    1.61468710219505
C         6.51452317329588   -3.15864152770067    1.37951135019012
C         6.89345729485583   -3.50900912734380    2.66967043293160
H         6.39185719766082   -3.04898831555392    3.51132603695824
C         7.90061646101808   -4.43531222725057    2.86349385639113
H         8.19518028516948   -4.70995716283240    3.86481279171562
C         8.52700118081282   -5.01207082913380    1.76987298893566
H         9.31382920065376   -5.73539342144698    1.92029020924884
C         8.14951255429519   -4.66060602250940    0.48378590989574
H         8.64002097663528   -5.11235293882831   -0.36569346163342
C         7.14465984537227   -3.72934470788205    0.28374150279146
H         6.84679773743382   -3.44735135866711   -0.71688399511400
C         4.74414732422185   -1.75468581795477   -0.51241443239538
C         3.99690958180023   -2.73560404046583   -1.15318323906918
H         3.67001540682213   -3.60930177008250   -0.60899226397496
C         3.67459134317891   -2.58473780981827   -2.49064902003777
H         3.09491142706199   -3.34516057880608   -2.99225006317228
C         4.09674228828190   -1.46203891781738   -3.18748436248865
H         3.84439180504009   -1.35284885517805   -4.23141830039426
C         4.84072540309284   -0.48286239402219   -2.54795979230692
H         5.16897440874455    0.39243188797461   -3.08862587446705
C         5.16476344256239   -0.62879408914809   -1.21094225592254
H         5.74203384843835    0.12355378186238   -0.69365323447182

