69
CSD_code = KIZMAH | q = 0 | S = 0 | Stoichiometry = C28H32N6NiS2 | MND = 4
Ni       -2.29092405733396    3.67600895742756    0.07673458102823
S        -0.91176243963674    2.87133560144387    1.59272925278537
N        -1.75706579549169    2.36523835352500   -1.30339827547773
N         1.66430976218284    2.26080677574845    1.13816268235840
N         2.53179721114437    1.80458099213715    0.21289021641680
C         0.41954589810234    2.39263179400465    0.64439070142555
C         0.48995104548289    1.97078699735061   -0.70882433533918
C        -0.59649934236587    1.86344742678177   -1.58629675506282
C        -2.86787063333828    2.19571295338447   -2.12999572685520
C        -4.11552246773205    2.14539764925568   -1.49581500200612
C        -5.27508627238942    2.07023223052257   -2.23833846278933
C        -5.20675842877372    2.03487267840753   -3.62341925003468
C        -3.97502666270586    2.06924831690538   -4.25621111612973
C        -2.80587257682206    2.14955372791241   -3.52182537446263
C         1.85838093696993    1.61741326221048   -0.89378051074094
C         2.50078808601435    1.14080997785146   -2.14487622574642
C         2.09244792745913    2.50177610487546    2.49683396293769
C         3.39759372347386    3.28962029602383    2.48419597866638
C         2.24558093574048    1.16798943434728    3.22556470892154
H        -0.45584126296501    1.28260563680316   -2.49860752428398
H        -4.14145531071083    2.15679626120837   -0.40235794319469
H        -6.23386388644556    2.04480393205002   -1.74181070565327
H        -6.11286096854260    1.98340493631131   -4.20831226091454
H        -3.92323401456089    2.04568486995648   -5.33519007926233
H        -1.85198870413504    2.21765748916020   -4.02456423653306
H         2.37499579769873    1.87679889641738   -2.93843035287047
H         3.56033174125980    0.98183079871757   -1.96756178321358
H         2.04827264873621    0.20511325219193   -2.47189259325980
H         4.15714358353945    2.72647809497321    1.94909711104926
H         3.25858004700501    4.24637404399487    1.98669325613964
H         3.73254974846522    3.46927952643923    3.50162307147521
H         1.30018335678866    0.63065252162662    3.22616223695832
H         2.99642440711601    0.56105353372257    2.72544403836743
H         2.55163185623613    1.33684680086418    4.25394726278888
H         1.29632875058720    3.08841649371102    2.96945995115800
S        -3.66992990188645    4.48087926189075    1.59269906460853
N        -2.82460229532138    4.98692991410720   -1.30351039300917
C        -5.00121529180601    4.95959763382556    0.64433485263659
C        -3.98514936902971    5.48879894943581   -1.58635056445751
C        -1.71383717231360    5.15645286609490   -2.13016488080156
N        -6.24597797955138    5.09145625198701    1.13810083065569
C        -5.07159660603062    5.38147107719374   -0.70887119402960
H        -4.12581980050394    6.06964899710313   -2.49865574744576
C        -0.46614530390561    5.20665797833104   -1.49606246547086
C        -1.77591934658928    5.20277430971934   -3.52198650382978
N        -7.11344292189361    5.54773651382907    0.21283449899407
C        -6.67414294500144    4.85043822889926    2.49675374597159
C        -6.44001556226888    5.73488457021830   -0.89383345508009
C         0.69337291832542    5.28190319746540   -2.23864637115843
H        -0.44015033419162    5.19510915472920   -0.40261133683282
C        -0.60680969490720    5.28313756609333   -4.25643728820170
H        -2.72983457981902    5.13477120669724   -4.02467996580449
C        -7.97927614258984    4.06257598681538    2.48405948975769
C        -6.82732636218727    6.18420280514555    3.22551289047275
H        -5.87802676675690    4.26379212690609    2.96937910682514
C        -7.08240681905367    6.21149959457231   -2.14493378692703
C         0.62496148775753    5.31743201169947   -3.62371863312198
H         1.65218316371138    5.30719511321401   -1.74217462608819
H        -0.65867048507640    5.30685334137421   -5.33540990719039
H        -8.73880871041292    4.62571545533025    1.94893234451918
H        -7.84021997568250    3.10583210216676    1.98654790266670
H        -8.31427335763838    3.88289928995633    3.50147103593976
H        -5.88194365822525    6.72156141747002    3.22614635349365
H        -7.57817416819862    6.79114473198748    2.72540828244364
H        -7.13338689489009    6.01530207486428    4.25388300412177
H        -6.95724519367485    5.47517952640574   -2.93828494896934
H        -8.14181807156478    6.37116598885346   -1.96743927884367
H        -6.62938621788813    7.14680973887266   -2.47234995057714
H         1.53102971906659    5.36893039855409   -4.20866260377353

