94
CSD_code = KIZMAJ | q = 0 | S = 0 | Stoichiometry = C46H39N3O2P2RuS | MND = 6
C         9.89652944583762    2.97688245186227    2.39281997735730
C         9.48324516920127    2.21951626928875    3.48264241701320
H         9.80213793565603    2.48183355702715    4.48172171902949
C         8.64803707589814    1.13267227210665    3.28782330372423
H         8.33026671567868    0.54471274102331    4.13713233402268
C         8.21708576443985    0.80025517840290    2.01433847239781
H         7.57021730291760   -0.05281879214604    1.86997191243893
C         8.60980013096575    1.56583352466889    0.92767132806889
H         8.26852862366759    1.31427645190467   -0.06545920893178
C         9.44442646572647    2.65051896213450    1.11543347832165
H         9.76132149076978    3.25651944706033    0.27437702608546
C         9.73986193404706    5.77977161803807    2.40677099601867
C         8.41121203235668    5.56767547295015    2.76147719662380
H         8.08540513556693    4.58826962788608    3.08248308517820
C         7.50329385031480    6.60931832983613    2.69584983457750
H         6.47164594842630    6.43768736997037    2.96729162551895
C         7.91189646557269    7.86649346235541    2.28233880842775
H         7.19810673180299    8.67548757028652    2.22811404560317
C         9.23636154239226    8.08459086024638    1.93931612056496
H         9.55776511598136    9.06533965023789    1.62018029399257
C        10.14883182879001    7.04712144150685    1.99959531452995
H        11.18789718471365    7.21066757802342    1.74193494481190
C        11.52955939900864    4.51916750659320    4.21307945656894
C        11.49862408615524    5.71590214297144    4.92166779843372
H        11.03862853926532    6.58932886491602    4.48146701204565
C        12.06587108752179    5.79086319905309    6.18063525161470
H        12.04740066607533    6.72576518714523    6.72085810126281
C        12.66750991640023    4.67713053869417    6.74173435874202
H        13.11499744457617    4.74126956759762    7.72253614214432
C        12.70360729061637    3.48296035320153    6.04068719301312
H        13.17886498474516    2.61413779854834    6.47320822076197
C        12.15003611620444    3.40413756056633    4.77649842918799
H        12.20378644552997    2.47773745524031    4.21728839658373
C        15.89801165012942    3.58429514181305    0.00053252749493
C        16.69856049774526    3.60390799836899    1.14145093591243
H        16.67213754401594    4.45829529665195    1.80514610470556
C        17.50758137986966    2.52288632532135    1.43755748653832
H        18.12529724222322    2.54448796394601    2.32403257724362
C        17.51499839996928    1.41038394047725    0.61222639465327
H        18.14024649202241    0.56311025994630    0.85380199512529
C        16.71127176439722    1.38045689297187   -0.51522589645014
H        16.70591058403531    0.50937149720061   -1.15412980253243
C        15.90223667160983    2.45903776154324   -0.82020251858904
H        15.25705020627545    2.42887451754642   -1.68802316454035
C        15.49688213886561    6.47197426258916   -0.00603089437387
C        16.86414528369944    6.64119353365372    0.17799394694053
H        17.53175489637374    5.79141768314016    0.14409870830316
C        17.37784790660041    7.90761170818918    0.39834338135450
H        18.44056715130700    8.03374118067858    0.54826852102831
C        16.53828014464867    9.00780304273887    0.42830829676900
H        16.94500909121529    9.99110707955255    0.61371831272030
C        15.17890750529499    8.84717077817807    0.21243122771674
H        14.52477048681916    9.70670480663429    0.22017264815019
C        14.65981563656800    7.58623047575037   -0.00785032015579
H        13.59804074122127    7.44520684099063   -0.17348785686284
C        14.55482850852564    4.88804849840992   -2.10815292266168
C        13.41978721445171    4.41933004492448   -2.75803015273612
H        12.58787824952933    4.04219183531036   -2.17707321120556
C        13.36322638803274    4.41957446149765   -4.14100177201900
H        12.47888971140863    4.05332375650253   -4.64105660789023
C        14.43631640482839    4.88733188846868   -4.88011924782021
H        14.39010983038059    4.89012206443093   -5.95931478041770
C        15.57244160075478    5.35135439337491   -4.23530517789639
H        16.41116726428523    5.71514250643037   -4.81106805451874
C        15.63481989608043    5.35192040366195   -2.85508249831426
H        16.51947975209501    5.71570448202929   -2.35075318429464
C        11.66675454996027    5.51301567323718   -0.22716479846763
C        13.41399648461367    1.63273299621586    1.14405276370425
C        14.26114598084027   -0.55050351515973    1.86145104830948
H        14.74894552136690   -1.36033959561282    1.31976032191429
H        13.56929395759013   -0.97741771090642    2.59587455237506
H        15.00803731216396    0.04250294904216    2.38487386585125
C        14.54804660001068    4.02862871886088    3.28248709390903
H        15.10993568016317    3.29715911253989    3.86501062532694
C        14.66073820633160    5.38610472048790    3.70182477952391
C        15.48765881053203    5.64308954346774    4.80846922777305
H        15.99122982059041    4.80416279038615    5.27095990993444
C        15.66880486735555    6.90654446655487    5.30860895158352
H        16.31096248304661    7.07276304095519    6.16037034787550
C        15.01125257080622    7.97782220861531    4.70282099645789
H        15.14673793736915    8.97907844787340    5.08708956579718
C        14.19448667494417    7.76848135910298    3.62474922220437
H        13.67826722022372    8.58945974467326    3.14853659985223
C        13.98068216482439    6.47682524764754    3.08240401188453
N        13.87365194861136    3.55260651212893    2.28291544205870
N        13.59022352002878    0.31153428243839    0.92572265287545
N        13.98985369006338    2.20457535821567    2.14596012596490
O        10.96928855086455    6.01702328440771   -0.99012393866457
O        13.17929628845885    6.38900568727900    2.08021492478757
Ru       12.73648802722204    4.61891452908930    0.98145391241373
P        10.97422667891263    4.44089968758192    2.48515199473824
P        14.65874120647709    4.88210481411566   -0.28684339051197
S        12.42756849379434    2.43945074554409   -0.04373110219879
H        12.99015665185133   -0.10396364190200    0.23123990596795

