61
CSD_code = KIZNAK | q = 0 | S = 0 | Stoichiometry = C26H32N2Zn | MND = 3
Zn        1.62302767051407    9.39636807195043    1.55724514132507
N         2.64725032201692    7.95030482483143    2.43711559539857
N         1.91430953717845    8.41722129751283   -0.13678670795956
C         3.82172313230414    7.59012900201314    1.94335749810693
C         4.84782222025040    7.06802221079017    2.80579043828278
H         4.63105132218479    6.95144032826704    3.85492219610900
C         6.09766485191261    6.79745706384776    2.37861587827368
H         6.85524020934154    6.46100443725577    3.07342999222652
C         6.44633230083151    6.94519011352080    1.01294232733231
C         7.73961037180457    6.66012744624338    0.57570451564877
H         8.47723323031779    6.35569050013007    1.30516077949752
C         8.07940545129740    6.75012672629553   -0.75967024227895
H         9.08543056363500    6.53063332155431   -1.08507562641190
C         7.10797092984061    7.10261206724309   -1.67556983854314
H         7.34549129143922    7.14902399497482   -2.72928617353050
C         5.80530606933866    7.39376232967048   -1.27139937370931
C         4.80642984544724    7.70573522663561   -2.22718252503015
H         5.07743020103817    7.72031243569468   -3.27419494256522
C         3.54318545586650    7.97725883136116   -1.84223767499797
H         2.81895006763599    8.22177902964145   -2.60197572285959
C         3.14333799461405    8.04814602013509   -0.46232957284473
C         4.12579195500563    7.69966116693883    0.53635316707842
C         5.43689484316368    7.35850273354064    0.10122571171912
C         2.24218799724682    7.59288491082268    3.77896353086589
H         2.68498342217072    6.63382121864840    4.08259891760169
C         2.62488162177163    8.67688928573156    4.79511179205646
H         3.70831731175715    8.81384070401602    4.80261435223508
H         2.17572616811423    9.62097037148646    4.47655891244846
C         2.12805086454782    8.31555199299868    6.19107496723629
H         2.40316242989032    9.10406364367464    6.89479010780966
H         2.60920415543064    7.39131396721113    6.52140387683945
C         0.61479547838150    8.12431900707645    6.18722387518569
H         0.27153669705706    7.84571911728659    7.18572701287194
H         0.13247955257515    9.06606810868469    5.91611093488058
C         0.22077976031284    7.04748196185903    5.18123944303415
H        -0.86478309482787    6.93107066698831    5.16443278516472
H         0.65382134880664    6.09116673784915    5.48504892185542
C         0.72184952161300    7.40929409411410    3.78694879592686
H         0.45449960293056    6.62803411480084    3.07271883140398
H         0.25334455865409    8.34450588651141    3.45839229726607
C         0.85184344641100    8.48191681899619   -1.11606582634014
H         1.01149668221038    7.75289356306171   -1.92290181168061
C         0.71977261402000    9.88796221996812   -1.71540843949634
H         0.56548779013011   10.59730040256300   -0.89836959858343
H         1.64724042560697   10.16373293614801   -2.22194124396136
C        -0.45437388764862    9.96004272912155   -2.68602020942701
H        -0.28058840689050    9.27671453006853   -3.52130958535893
H        -0.53331930183706   10.97037401241931   -3.09292196983791
C        -1.75218087722820    9.57808602338793   -1.98184308011780
H        -1.95443395924691   10.29603435245689   -1.18392757819699
H        -2.58494976713439    9.61553350765679   -2.68722155613222
C        -1.63664488930036    8.17889529035300   -1.38548980979355
H        -1.49257451004568    7.45302604864519   -2.18967554562169
H        -2.55916555025255    7.91777641316643   -0.86285127339967
C        -0.45880895409480    8.10350983623417   -0.41967534012520
H        -0.36596943926704    7.09469306387494   -0.01274435579806
H        -0.62202563226006    8.79185326551125    0.41770621744580
C         0.83611057958663   11.18685060516179    2.06317977711605
H        -0.24715930791678   11.20026310799454    1.96902723392907
H         1.20805035006364   11.98897879589762    1.43172001698908
H         1.05766536276386   11.47755750779416    3.08561978251862

