47
CSD_code = KIZQUH | q = 0 | S = 0 | Stoichiometry = C16H19N4O7V | MND = 6
V         1.96591371968154    8.18178697007705    8.64486162831665
N         4.09647353711338    9.32768157023094   10.18670955042742
N         3.76975856156296    8.17439322588231    9.59325819932939
N         2.42506348954404   12.55429860818255   10.40636463125781
N         4.88312909842717   14.23316163753621   12.37818125687740
O         1.98049768105623    9.82742551031986    9.58176939674698
O         4.48669989247504   15.38005350807278   12.48377828669304
O         5.90813450335715   13.80828753678984   12.87198533358278
O         2.13598333668239    6.47765613249643    8.68506488112445
O         2.62093939487846    8.64850930416852    7.34849178306024
O         0.33108241699552    8.28933386669372    8.58442700263432
O         1.35739001534834    7.55048557830314   11.21929005746585
H         0.50614366091919    7.15981136471745   10.98340954997108
C         3.09554060149796   10.17065157420815   10.10133484733456
C         3.30100281663149   11.51513398741723   10.62102145265793
C         4.35305056726623   11.97982179074609   11.38184308088436
H         5.19799920820064   11.41581916633566   11.71607686383646
C         4.08951114171334   13.33974043577164   11.63168363959762
C         2.88954501166168   13.65561031889533   11.00680159990025
H         2.38145881530840   14.59922184182536   10.97632773831938
C         1.21142678558105   12.48187247684693    9.64021344759248
H         0.80220357201502   13.48419116168235    9.52377468168477
H         0.48334266345890   11.84526209228688   10.14728878373775
H         1.41216973629636   12.04724202976199    8.65849387573828
C         4.67619149205879    7.26109164021014    9.49009839757687
H         5.67396701802055    7.48121859484239    9.87346072209092
C         4.43313117453305    5.98264161521486    8.90137193328911
C         3.11418330046111    5.63518653889885    8.50695098791701
C         2.89249005486403    4.35919906924406    7.96645002720343
H         1.88748648687034    4.09765336194689    7.66661024664513
C         3.93335948003923    3.47270790677213    7.80984124176696
H         3.74169428674585    2.49874828889503    7.38310151844883
C         5.23750514709742    3.80324111519730    8.19297457899381
C         5.46606623922252    5.04935681793278    8.73781807892384
H         6.46426382289457    5.32971486427017    9.04304455221162
C         6.34602647694105    2.81277084845823    8.00440774964853
H         7.28305184131455    3.19869481539060    8.39570423533600
H         6.47743560146613    2.59122805221303    6.94618548281430
H         6.11317763732408    1.87834304007745    8.51276270748370
C        -0.77686682554801    8.82530530097823    7.99729954000882
H        -1.11294792544811    9.70323608549103    8.57382045780075
H        -1.59553085580833    8.08963007261157    7.97989687490550
H        -0.54831663969270    9.13717566698822    6.96619286490077
C         2.07983883913136    6.61785530090798   11.99726801587344
H         2.29210880315393    5.69971240284969   11.43782547045336
H         1.53047878985396    6.36567112417826   12.91119424140983
H         3.02074552682369    7.09526578717613   12.26996850553160

