40
CSD_code = KIZQER | q = -1 | S = 0 | Stoichiometry = C17H12N4O6V(1-) | MND = 5
V        -0.20993919823021    6.90294723556244    8.25338207114337
N         2.18965410054782    7.82632114261630    9.65561087318143
N         1.41089834777236    8.22186568583986    8.61648607075495
N         3.44803907802778    6.68624447595556   11.98120438309706
N         3.39729718146773    3.53486262285114   13.63470993283521
O         0.88561812892577    5.96825378626743    9.51222771025293
O         2.75716836844191    2.52348270108996   13.41089271984502
O         4.21142723636337    3.63620612912160   14.54437610920939
O        -0.28349076093262    7.93626971797812    6.74592883997696
O        -0.65684036349741    5.59099780036958    7.58864772656520
O        -1.28856768015361    7.51088970234861    9.17216421431601
C         1.80587821647329    6.63877700493724   10.06635683866303
C         2.50151568845483    6.04456671142550   11.21476884632903
C         2.32844872090857    4.77242146440784   11.71113160194116
H         1.65527498286652    4.03133702352626   11.33129376109408
C         3.20607759753922    4.64956740437282   12.81111519101596
C         3.87783969592730    5.85963731250299   12.94195144087047
H         4.61797210643621    6.13773400194076   13.66628461340054
C         3.90689847433420    8.03290819983401   11.79832679519755
H         4.57115184021445    8.29908668405819   12.61993315687380
H         3.05480402004981    8.71126513564992   11.76555249469080
H         4.43253646342067    8.12479081407408   10.84741625370965
C         1.55375710495304    9.44286656764641    8.22323106065885
H         2.28447773395171   10.05178107949177    8.76151639076357
C         0.79480147626338   10.01591908380320    7.16442632950966
C        -0.13648394239469    9.17981279842637    6.49145658807240
C        -0.92176429270683    9.74998953717902    5.43735856021799
H        -1.62787044261581    9.09013759636079    4.95288277106622
C        -0.78891560806608   11.04877365806454    5.07485283454273
H        -1.39435044136794   11.46222170674969    4.27848671129273
C         0.14143525773091   11.90153342825154    5.72124334564051
C         0.94200114424087   11.38532933241874    6.77611764581232
C         1.85149726998222   12.27437017678791    7.38494529979279
H         2.48207695867909   11.93138854394646    8.19046811684972
C         1.96345335518910   13.57993211497025    6.98288476928576
H         2.67169804849388   14.23478738129350    7.47256846143306
C         1.17123224150609   14.07712397468641    5.94442630534562
H         1.26914906504053   15.10867226659765    5.63616057695284
C         0.27614721908259   13.24343930205907    5.32865174896954
H        -0.34690439331926   13.60868869453747    4.52286083882879

