64
CSD_code = KIZRAO | q = 0 | S = 0 | Stoichiometry = C26H21CoN8O8 | MND = 6
Co        4.91975338236042    6.13321529062726    3.75325850115970
N         4.65757602583831    5.96491552638164    1.89548990900222
N         5.48348424422593    6.81294623594783    1.23173857204201
H         5.48144726176804    6.83945429941829    0.21616761576786
N         8.07643987135162    9.28819566711864    2.05061415824929
N         8.89401319073089   10.26099768776812   -1.29433727826151
N         5.14829958356134    6.43651396032405    5.54158436495874
N         4.30850727472430    7.36783564217700    6.04094064310371
N         2.25838230044101    9.30389771064964    6.72188127087798
N        -0.02552148670204   11.32916056610870    4.86886462944989
O         3.68243142209595    4.86374723989740    4.18279828984630
O         6.20690717987331    7.45608272050400    3.24917035804749
O         8.42660592418801    9.85971959000808   -2.34028870629768
O         9.76796336020425   11.09806724948023   -1.19260643546263
O         6.23897881501585    4.84485397016226    3.61360986113896
O         3.60325138181570    7.47719853024497    3.88376013974285
O        -0.21498715332419   11.38716187841429    3.66910591969423
O        -0.61456126101426   12.00392164510258    5.69512790122656
C         3.84993653380553    5.17659877979477    1.26637694258863
H         3.82292280515535    5.20045475074251    0.17543024285424
C         2.99114319875314    4.27559154466240    1.93560442632548
C         2.96493997933261    4.17724713902266    3.36507284963519
C         2.06020518576718    3.23690502713650    3.92783548317339
H         2.04137315754564    3.16423341877445    5.00435993252242
C         1.25140566140530    2.45786705933747    3.14997678715942
H         0.57699921164291    1.75395192314763    3.61509044869047
C         1.28541551393160    2.56030349168058    1.75232718114106
H         0.64171930323658    1.93889152009249    1.14977031098571
C         2.13930670869707    3.45232222811792    1.16805860261953
H         2.17671650635502    3.54311400761406    0.09148036158352
C         6.28639722209498    7.57564904920780    2.00477833203682
C         7.19593687726478    8.49092695104886    1.35145333080639
C         7.37047284106082    8.73729825046297   -0.00048397567756
H         6.85895332986857    8.30378421893116   -0.83524142940991
C         8.38162390949330    9.70713131906734   -0.09892343391441
C         8.79069312393945   10.02000264217674    1.19074022476258
H         9.54365569445994   10.71855227218976    1.49785158015670
C         8.21457205712123    9.32880046687887    3.48013060537703
H         8.99955701158502   10.03550892396662    3.74169664355647
H         8.46694264353732    8.33972401112992    3.86465738624493
H         7.27569650688659    9.63517652327370    3.94297281431908
C         5.96934218225337    5.83412198887401    6.33979264145877
H         5.95210754817637    6.12603585952641    7.38714199430142
C         6.87878969341053    4.81845487854039    5.93819682650546
C         6.94984649601676    4.36851768310111    4.58699809868348
C         7.87686848602391    3.34315152446432    4.28936952891715
H         7.92469110839072    3.00122776123892    3.26643715498646
C         8.68185681148395    2.79830209348902    5.25567422183963
H         9.37738810253472    2.01464306023858    4.99241893436113
C         8.60971392445865    3.24469915226518    6.57703315250748
H         9.24696501108899    2.80906249247134    7.33099535219104
C         7.72035619708903    4.23566848631830    6.90264492179306
H         7.65068187715015    4.58838548519231    7.92205813399480
C         3.52460598437265    7.85426587996942    5.11054731752922
C         2.53847015557084    8.86839689478677    5.44786977092251
C         1.72918020554850    9.55070119167991    4.56463037764736
H         1.70176845379539    9.43693984880879    3.50095482406019
C         0.94305853055992   10.42471873311134    5.33979904144076
C         1.30126432905705   10.23779832519168    6.66881356665321
H         0.91086731171671   10.72780778872554    7.53879318725846
C         2.87884892996302    8.83137346246365    7.92616554813052
H         3.93760520525614    9.09066052851077    7.93101015174991
H         2.80628727436463    7.74582434170229    7.97931492786551
H         2.38307988162606    9.28212161053254    8.78404496338243

