116
CSD_code = KIZSUI | q = 0 | S = 0 | Stoichiometry = C63H46N4O2Ru | MND = 5
Ru        4.16025783462820    4.16025703741550   18.17644976427993
C         5.50047682794916    5.50048979511577   18.17645223219497
O         7.67703829539215    4.72005177587409   17.67280853729729
N         5.18934105934130    2.79232338630596   17.10293735822655
N         4.76925285038992    3.25921093866462   19.89738905688697
C         5.20315366970727    2.64164062285463   15.74536128539458
C         6.05890678476776    1.54685229704819   15.38722158720006
H         6.20812491848835    1.18321444901054   14.38939524305603
C         6.60187027801961    1.08031382697737   16.53544401094264
H         7.28009651229811    0.25948478834202   16.66244601532598
C         6.06797843051305    1.87742730288120   17.60243310682969
C         6.41819300965862    1.71129097780167   18.94096087993054
C         5.80274428978354    2.37262721462082   20.00001303608769
C         6.15935226986635    2.19879419965386   21.37807879233594
H         6.95618459171197    1.57708457811837   21.73503438005092
C         5.31253402414836    2.96632531558310   22.10272316105622
H         5.28947224168277    3.09849745830740   23.16637261831998
C         4.44391737828642    3.62475993740843   21.17086002065191
C         4.51837625426856    3.43394146859943   14.82520288552185
C         7.53140980788194    0.78852180155061   19.24256076240860
C         8.80021072393736    1.05460630826129   18.73681465953846
H         8.94831429092906    1.93404096469426   18.12714442780810
C         9.85734783870108    0.21045254472800   19.01811617521902
H        10.83855604261735    0.43450818282750   18.62393173452122
C         9.67669820330925   -0.92437225799417   19.79955327683721
C         8.40561673322375   -1.19182744753775   20.29382703716747
H         8.24477155792055   -2.07396530207229   20.89770804161669
C         7.34591773294454   -0.34676108230100   20.02395363818170
H         6.36159567135644   -0.57274782156830   20.40845480635170
C        10.81651113495890   -1.85520356182985   20.08202407718646
H        11.76967745687498   -1.33733534303170   20.00627806738730
H        10.81753485357699   -2.67266012418756   19.35987215181416
H        10.72657062681134   -2.28801268686909   21.07610001555851
C         4.78942996848287    3.21469059434831   13.39130618678236
C         6.08298513696128    3.35543864306834   12.89834640823483
H         6.88055230780682    3.61931631939362   13.57756313141432
C         6.34756490003299    3.16949161888145   11.55425928563902
H         7.35785054729900    3.29009088013824   11.18902671166114
C         5.33448605267737    2.82811321122802   10.66826978411057
C         4.04448285506137    2.67725248610912   11.16581537508290
H         3.24524851561003    2.40353636912835   10.49136539614251
C         3.77211977412436    2.87084296290609   12.50586769332564
H         2.76621616167561    2.74009069730341   12.87816611456391
C         5.61120488537772    2.61911187198415    9.21066399347599
H         6.65987512437885    2.79363625073801    8.98375344745182
H         5.00685893551243    3.29615588497127    8.60799250669031
H         5.35761917323464    1.60040497555189    8.91900218701004
C         6.87997928064461    5.11157257660064   18.50996805224613
C         7.22235845642077    5.18591096925321   19.95417152356123
C         6.42648488687917    5.88965668372491   20.85744115750959
H         5.54959881755359    6.41642809184462   20.50648897296745
C         6.77924062661744    5.92607754043597   22.19402156342759
H         6.16747775380634    6.47025804847850   22.89776797922217
C         8.70195219399338    4.55697937115736   21.74282578327944
H         9.58151735823542    4.03521920544097   22.09003572596348
C         7.90791701683245    5.25602611529473   22.63848054929024
H         8.16964963582888    5.27948208896287   23.68631936873849
C         8.36479666202395    4.52605333439240   20.40464320523193
H         8.96784976218408    3.98739752334533   19.68969255849241
O         4.72001433353796    7.67704533753182   18.68008721404093
N         2.79231795853573    5.18933255401692   19.24996205855718
N         3.25921321035257    4.76925168333160   16.45551039226581
C         2.64163582961970    5.20314515664115   20.60753798502000
C         1.54684215912753    6.05889168639508   20.96567772164427
H         1.18320307987011    6.20810663759642   21.96350419580523
C         1.08030402110526    6.60185647201794   19.81745587111367
H         0.25947398985597    7.28008163232384   19.69045378107587
C         1.87741768326879    6.06796546636034   18.75046634476273
C         1.71128293845494    6.41818220973899   17.41193897228529
C         2.37262495278114    5.80273919468813   16.35288696256453
C         2.19879561069732    6.15935122124032   14.97482174708878
H         1.57708399353629    6.95618235885865   14.61786673399336
C         2.96632919898846    5.31253564528335   14.25017709954251
H         3.09850198507319    5.28947506006277   13.18652769290191
C         3.62476313390867    4.44391769924734   15.18203951939427
C         3.43393954091210    4.51837097471419   21.52769646596743
C         0.78851599398887    7.53140079905258   17.11033893483010
C         1.05460277273172    8.80020120806974   17.61608543260594
H         1.93403861369717    8.94830320239602   18.22575435069128
C         0.21045248948853    9.85734036628435   17.33478107789319
H         0.43451148335513   10.83854910988770   17.72896236444042
C        -0.92437083998287    9.67669306037747   16.55334115717949
C        -1.19182897776347    8.40561187498616   16.05906860141968
H        -2.07396641837694    8.24476804872510   15.45518678861301
C        -0.34676566834749    7.34591095400270   16.32894402434665
H        -0.57275517355212    6.36158863107666   15.94444524152993
C        -1.85519687604809   10.81650894492032   16.27086528679610
H        -1.33732188170605   11.76967271973235   16.34659713520040
H        -2.67264749156738   10.81754576321306   16.99302378536897
H        -2.28801457860407   10.72656070692507   15.27679384991447
C         3.21468896490602    4.78942626844419   22.96159309520957
C         3.35544236807579    6.08298203161527   23.45454977897005
H         3.61931723143071    6.88054737615741   22.77532989787581
C         3.16949980024314    6.34756523451295   24.79863675302204
H         3.29010080098846    7.35785172925123   25.16386635856114
C         2.82812084365103    5.33448927365018   25.68462941732554
C         2.67725373830506    4.04448568195237   25.18708685328300
H         2.40354008584923    3.24525310678048   25.86153998848493
C         2.87083936882651    3.77211916433181   23.84703436352090
H         2.74008689764805    2.76621428927718   23.47473932587842
C         2.61911719846513    5.61121395958360   27.14223377539852
H         2.79376773437221    6.65985916003095   27.36916310131544
H         3.29606442791810    5.00677195734951   27.74491675065521
H         1.60036813595915    5.35775682155539   27.43386200497982
C         5.11156385458298    6.87999416775493   17.84293426480210
C         5.18590303356013    7.22236794921182   16.39872910876583
C         5.88965086611008    6.42649082912559   15.49546454059226
H         6.41640665461280    5.54959606590956   15.84641824965181
C         5.92607907239706    6.77924299400347   14.15888355669070
H         6.47025065216841    6.16746984174420   13.45513942370937
C         4.55698551904581    8.70196040762457   14.61006800349936
H         4.03524616618512    9.58153720784369   14.26285592821741
C         5.25603488887840    7.90792135101023   13.71441866121951
H         5.27949926418888    8.16965256915868   12.66657984908403
C         4.52604822604532    8.36480569659914   15.94825067764843
H         3.98740615346416    8.96787262588845   16.66319997808647

