112
CSD_code = KIZSES | q = 0 | S = 0 | Stoichiometry = C60H44Cl2N4ORu | MND = 6
Ru       -0.49878112911707    3.92836610139602    5.32106541376185
Cl       -4.57156953176658    3.49969312370306   11.12642825551205
Cl        1.11231751234842   -2.94246972665098    5.17704370795809
O         0.09176090077286    5.63483616586959    3.81354266505857
H         0.79708358406881    5.39612652439700    3.19317076425014
N        -2.37872547612037    4.68903304172215    5.20530890747185
N        -0.10870542474527    5.14748446527884    6.90340028851295
N         1.45797604642540    3.37314211004038    5.27804509196798
N        -0.82595971711086    2.87603371360464    3.61091462580005
C        -3.34228421629790    4.33107472129163    4.31317585908756
C        -4.57417918969381    4.99533130722041    4.63997632141486
H        -5.49962105697435    4.87460624678756    4.11099204164385
C        -4.33210690210911    5.75674844730067    5.73179652121851
H        -5.02010928591301    6.38048093174138    6.26778720623618
C        -2.94974695472831    5.56364794972185    6.07601450959152
C        -2.32931770179775    6.16180371338905    7.17267558724716
C        -1.00331457145375    5.94534768724901    7.54596539424209
C        -0.36958473817018    6.57395514277582    8.67210167347208
H        -0.84304116452840    7.26715283636820    9.33905270877110
C         0.90795084862892    6.12899064080485    8.70312745520788
H         1.67434579027673    6.37075480265977    9.41357338882779
C         1.06724331441758    5.24084070300785    7.58528081854638
C         2.26031436712677    4.59493331482559    7.25611067216675
C         2.42692997770650    3.74561572164847    6.16048844337347
C         3.67945002549488    3.15595315502480    5.77905896845778
H         4.61318731727087    3.31067659912033    6.28407474426136
C         3.44184743867718    2.40691067535481    4.67674422777654
H         4.14438633243759    1.83449042454079    4.10342822351243
C         2.04273551870212    2.53667592224700    4.37743875879037
C         1.41015251672222    1.90389213605308    3.30709777727460
C         0.06670453332205    2.07277345997669    2.97161585295692
C        -0.58206673744730    1.40303401163492    1.87799395961936
H        -0.11287415627400    0.69936071577444    1.21903996592055
C        -1.86492467579967    1.83331583291086    1.86021608363738
H        -2.64260156148796    1.56202213639181    1.17292816778368
C        -2.01292811612242    2.74986744328973    2.95664420110672
C        -3.19604318936119    3.42246856098313    3.26445383795321
C        -3.13861655555384    7.08144750400583    8.00215485322402
C        -3.42591052916648    6.76357532034810    9.32565058753203
H        -3.05086945577290    5.83841785038232    9.73584526548465
C        -4.19380988835638    7.61346202451580   10.10001962570349
H        -4.41775164677534    7.34937959043063   11.12315395887816
C        -4.67660423428631    8.79672085979890    9.56604280320320
H        -5.27548461039582    9.46098229707860   10.17152884282909
C        -4.38829862004483    9.12507078570862    8.25209500263753
H        -4.75924666960275   10.04873354514745    7.83155353365809
C        -3.62691343315758    8.27208209730013    7.47344248125816
H        -3.40092836483819    8.52951187233878    6.44810208043468
C         3.43757851334360    4.83107682292609    8.12122157975948
C         3.98746031649234    3.78448866936316    8.85490331955654
H         3.54237763708858    2.80192571598414    8.78965366329548
C         5.08665293029298    3.99780576522835    9.66632628628098
H         5.50174557447352    3.17820721347794   10.23464165494527
C         5.65483619554030    5.25788065740899    9.75078609282955
H         6.51451793855185    5.42377648678308   10.38298483279913
C         5.11694251687710    6.30423757415820    9.02053771130181
H         5.55856355208439    7.28844646162390    9.08009246231867
C         4.01428198744291    6.09387450709565    8.21256335679648
H         3.59881072272571    6.91044902196553    7.63900636815710
C         2.21828147378445    0.98223403234215    2.47942315953869
C         2.76288016229996   -0.16685463997136    3.04415292694988
H         2.58600540060101   -0.37129663879542    4.08909535863458
C         3.50671228377076   -1.04206202347197    2.27477162494115
H         3.91432275607963   -1.93596399702692    2.72360621551259
C         3.72629348896135   -0.77608765277668    0.93336614005065
H         4.30826898096432   -1.45930337136499    0.33255005285586
C         3.19714742224114    0.37049571211576    0.36533812564613
H         3.36945420774043    0.58567628646154   -0.67947622387682
C         2.44552337697110    1.24294501183869    1.13174950212284
H         2.03509168043461    2.13896871715219    0.68741430481026
C        -4.38064936155615    3.14979563396958    2.42010518415865
C        -4.97246817496314    1.89072133004185    2.42198348322414
H        -4.56227192279148    1.11367164297372    3.05117311519691
C        -6.08075496455019    1.63575688292565    1.63496187792542
H        -6.53424080443587    0.65529975699720    1.64770428692552
C        -6.60888187359289    2.63322852918012    0.83259170596412
H        -7.47298911456180    2.43282102256744    0.21657118189822
C        -6.02485624634024    3.88881938346781    0.82328110032491
H        -6.43213680858001    4.66986455706227    0.19764066920504
C        -4.91965361895154    4.14689901614881    1.61360497096364
H        -4.46032407890939    5.12500386046085    1.60463410106754
C        -1.00766205728069    2.49111317449362    6.44494591921739
C        -1.87886570380018    2.68706038081354    7.60119049002456
C        -1.34145117202174    2.94141766097404    8.86465789437086
H        -0.26905819618369    2.96105105276213    8.99159183292209
C        -2.16311032202684    3.18770430792792    9.94747105009490
H        -1.74003961220312    3.39138445216133   10.91921771754743
C        -3.53838168758017    3.17567243236561    9.77659197671138
C        -4.09548416072337    2.91075373579189    8.53625765704543
H        -5.16747942930475    2.90143613929581    8.41554764016375
C        -3.26781731120896    2.66360123062036    7.45854153420164
H        -3.69792619735702    2.45756942947155    6.48941230851368
C        -0.52165454835892    1.13809550776252    6.18567975654090
C        -1.21852369430750    0.28128103814698    5.33155708962168
H        -2.15194573524104    0.61056985871412    4.89975424938623
C        -0.72169924871026   -0.96935562247591    5.02068735266348
H        -1.25843271614290   -1.61983734544871    4.34784554217481
C         0.47694167804167   -1.38386443992211    5.57737070961244
C         1.17455253663834   -0.56216857764118    6.44855612829774
H         2.10283109428102   -0.89970411146396    6.88388672993557
C         0.67451261377386    0.68981293075943    6.74925353253716
H         1.21982392699762    1.33902246096735    7.41822967577465
C         1.58475709646312    7.35322670358867    4.65281477694550
H         1.81935634486677    6.69914008807934    5.49121697003342
H         1.62102652914426    8.38377932650745    4.99474011215280
H         2.34104800752821    7.21550754721969    3.87985644543915
C         0.19823756919654    7.02289258991906    4.10870507683408
H        -0.55869113706167    7.20556055305219    4.88116114071057
C        -0.12994787886983    7.83996411052053    2.86085796915050
H        -1.10182482216976    7.54659883080785    2.47039378993660
H         0.62051354534883    7.67559555299719    2.08850771480742
H        -0.15469398070779    8.89906254641637    3.10017689933325

