119
CSD_code = KIZTAP | q = 0 | S = 0 | Stoichiometry = C65H48N4ORu | MND = 6
Ru        2.46361458138734    3.71136694613146    2.95582940307874
O         0.71208436670309    2.09052503690021    2.98262595629820
H        -0.12952025020829    2.52021041360532    3.19635088966075
N         3.45707395132075    2.46358984529643    1.70747869764206
N         3.34554160802682    2.80419070962735    4.55569083067525
N         1.30209882703910    4.79591043053250    4.22483372661955
N         1.39354884267278    4.42903767815113    1.38073776851627
C         3.34532134297455    2.41458373887767    0.35178954721436
C         4.24090924716705    1.41812506109365   -0.17354036101774
H         4.35766941525435    1.18071939283052   -1.21313232726656
C         4.87820542880793    0.86799781570730    0.88308510329947
H         5.60348058261796    0.07800939774405    0.88030718129840
C         4.38974111389902    1.53894513357288    2.05967653257739
C         4.82533378783886    1.25609714209720    3.35189668379083
C         4.33918898083122    1.87729132208876    4.50420504642300
C         4.85533303387291    1.64793247767629    5.82303145671874
H         5.65935228305773    0.98048384515295    6.06386869485636
C         4.15282161463560    2.44467119106859    6.66456866142718
H         4.27626022035642    2.55536587067100    7.72449784381185
C         3.20311997122670    3.16198368904859    5.86366790225464
C         2.28186451929264    4.08603173718077    6.36552938307645
C         1.38487300660871    4.81468124282928    5.58467286408594
C         0.37518703807215    5.68729868000772    6.11932322774867
H         0.19759412311364    5.85786767930491    7.16354309052664
C        -0.29292270666993    6.20735122999392    5.06494906422452
H        -1.12394559714041    6.88533640699218    5.07690909619640
C         0.30272650737498    5.65313601444834    3.87894521007637
C        -0.12011151181447    5.94745951022457    2.58440249637418
C         0.40971608721853    5.36833929399239    1.42933933503038
C        -0.00278819556253    5.70485500693997    0.09661883038354
H        -0.75321633123521    6.42913355060629   -0.15317064825516
C         0.73599743503621    4.94410087221615   -0.74696106929867
H         0.69419419441456    4.91592999500467   -1.81865642232923
C         1.61346922691341    4.15257379162387    0.06637403263326
C         2.51718959917669    3.21244772288332   -0.43391670093507
C         5.88650171389883    0.23997710831300    3.51861624804649
C         7.15186419662215    0.45177497232602    2.97978409224990
H         7.34754508246430    1.37108890296451    2.44760300411147
C         8.14693256628155   -0.49525505521987    3.13804507615482
H         9.12724509270155   -0.31844614286022    2.71952541789841
C         7.89081184731285   -1.66758501771208    3.82993480363654
H         8.66816938487661   -2.40778317334001    3.95043614619010
C         6.63358870191105   -1.88698593954925    4.36701241888368
H         6.42761097410268   -2.80053322639522    4.90615879081150
C         5.63830339049741   -0.93841440176414    4.21542599380172
H         4.65588176558860   -1.11159913638334    4.63208389989091
C         2.25542450660818    4.30739738068970    7.82727210245531
C         2.55856631167432    5.56036979209823    8.35190948887944
H         2.81545196978922    6.36601885658744    7.67919036404878
C         2.54142656577665    5.77180624042882    9.71823552856393
H         2.78344083786467    6.74767314450412   10.11375090730243
C         2.21535754637972    4.73683493144375   10.57880120842096
H         2.20005510413028    4.90306310082692   11.64584537952195
C         1.90693120026117    3.48830946995456   10.06548750801659
H         1.64771972979237    2.67838162147970   10.73200562447492
C         1.92885134236529    3.27343839432334    8.69945436211999
H         1.68246380336356    2.29957588357388    8.30021925743685
C        -1.19259669561852    6.95375530917318    2.42471266140559
C        -0.97559074261612    8.26956347102564    2.82095037270868
H        -0.01737669989045    8.54081836949915    3.23480141310521
C        -1.96665211205054    9.22180441817430    2.67210939431121
H        -1.77654860031885   10.24111110589686    2.97666500658854
C        -3.19319727019096    8.86938863354299    2.13371844691854
H        -3.96995116647635    9.61121253551215    2.01954026549900
C        -3.42072200490721    7.56048211145249    1.74232546502600
H        -4.37749414211660    7.27943221829546    1.32595606348291
C        -2.42688029239187    6.60857844933089    1.88333333518130
H        -2.60756301139124    5.58681284032861    1.57985488183834
C         2.59336203732671    3.05602429344904   -1.90411266946908
C         3.10438355553456    4.08301310251740   -2.69108319538310
H         3.44874280944488    4.99122380608954   -2.21724261458002
C         3.17865528693333    3.94302905372906   -4.06497419647776
H         3.58066702455591    4.74602142137522   -4.66576677548859
C         2.73875963501614    2.77773390193949   -4.67006488615206
H         2.79471522228765    2.66963589277901   -5.74326742775027
C         2.22567599493540    1.75188599761297   -3.89411222421761
H         1.87856541409650    0.84195153862424   -4.36212587357301
C         2.15492752577482    1.88841691734238   -2.51954127615039
H         1.75051845186534    1.09103221031887   -1.91261249265497
C         3.80477821144990    5.04976832004884    2.87720437045494
C         5.21450034225802    4.71860920434092    2.69919639358024
C         6.04766128464198    4.51658245902871    3.80093245571761
H         5.64989257752539    4.64101538551114    4.79787237947226
C         7.36705825217660    4.14605618690618    3.62271691799856
H         7.99653459567488    3.98238956210029    4.48537603293349
C         7.88122195694174    3.98005283931009    2.34756456176432
H         8.91274018842003    3.68870160462567    2.21198623340205
C         7.06689354417810    4.19324742413754    1.24699259548713
H         7.46182546903418    4.06812836085536    0.24899707321209
C         5.74680599353206    4.56251476582583    1.41755358198075
H         5.11010742172153    4.72491095777413    0.55947659453710
C         3.43785587167818    6.45242984886026    3.02835752895983
C         3.00470155248044    7.19800543825639    1.93032391841879
H         3.00864532390623    6.74541420152740    0.94914830860661
C         2.55885526597491    8.49313627805324    2.09153293320507
H         2.19696818199577    9.04162057470871    1.23379218055052
C         2.52302157605455    9.08664620068385    3.35198585585653
C         2.98652097222392    8.35332250876524    4.44264139825441
H         2.99666519855247    8.80839789165245    5.42288125165657
C         3.44982042979239    7.06408017367784    4.28413154144958
H         3.80585131699261    6.50466831086061    5.13756366083084
C         1.98334391224064   10.44311875150101    3.52630611688155
C         1.15276876701633   10.73977713352264    4.60549622898315
H         0.90580863896238    9.96422260253257    5.31673932089104
C         0.62007715563301   12.00630956752198    4.75669964235296
H        -0.02965087187920   12.21906942906775    5.59362346646281
C         0.91269599985349   12.99978015762220    3.83731813685511
H         0.49749280808841   13.98975350342266    3.95695094544959
C         1.74127005109249   12.71759387423041    2.76406249793900
H         1.97767048108708   13.49046083959087    2.04682373210714
C         2.26939834647756   11.44988787286471    2.60720364593814
H         2.92614081004607   11.23912467831922    1.77573080676829
C         0.75702821173027    0.83185068243643    3.63103929348299
H         1.77296667954414    0.45458158931846    3.48319226824745
H         0.05116670338110    0.14928355184942    3.13380331371824
C         0.43223892180963    0.93478329153108    5.11445733272486
H         0.54491294980793   -0.03570624162857    5.58993937543980
H        -0.59219920009530    1.27691991881478    5.26119307120204
H         1.10769390960566    1.64147512340828    5.59376071177603

