103
CSD_code = KIZTOD | q = 0 | S = 0 | Stoichiometry = C55H40N4O3Ru | MND = 6
Ru        2.29120395686851    4.50029638114472    2.31036036436800
O         3.02407632610138    4.07653210687985   -1.28981070001585
O        -0.75483811786430    4.27640417937732    0.49514955042331
O         3.07098080027915    4.40231600069391    4.52440562660570
H         2.73708979497110    3.57242922777800    4.89712801406851
N         3.98964857431467    3.49875960969246    1.78074967728175
N         3.27824457971160    6.26685257682830    2.12844663347177
N         0.71923881325086    5.48280489182788    3.14069958022957
N         1.40335098963569    2.71645510158309    2.74500785075877
C         4.12863641340710    2.14866581593427    1.65733489554509
C         5.39414683974213    1.84924059165244    1.05163982186808
H         5.74499925088492    0.86424091038769    0.81304185035400
C         6.00868877590088    3.03300479940142    0.81786350399140
H         6.95974068419825    3.20073234728020    0.35234207401000
C         5.12570433068538    4.06223999322587    1.28786470143390
C         5.41130434540014    5.42809302833763    1.23430180928673
C         4.53669601470733    6.43652840554584    1.63684990178999
C         4.86951369341330    7.83531328340168    1.63715548125719
H         5.80569418245373    8.24771610030114    1.31641007259359
C         3.79544107856959    8.49423438099611    2.12721777640417
H         3.67585019574020    9.55177032405899    2.25723670988908
C         2.80522103582682    7.50266149177205    2.44633606981901
C         1.55297862484336    7.78904941875178    2.99191551997543
C         0.59113322166028    6.82736636214537    3.30727880182193
C        -0.69105793453248    7.12099913830726    3.88543284949975
H        -1.04194560641313    8.10019198770761    4.14677508733098
C        -1.33825208421795    5.94113788397512    4.02760387689006
H        -2.32353287465810    5.76741180376993    4.41328328630486
C        -0.44190159519393    4.91804247854606    3.56876367024812
C        -0.74327308405998    3.55890738231061    3.58550816869161
C         0.14190332638503    2.54641771212585    3.22455716662300
C        -0.13925836812486    1.14490349744314    3.36249362566542
H        -1.05709279130626    0.73808979751243    3.73956537875810
C         0.96908330826887    0.47989949998205    2.95843292162077
H         1.13463879404621   -0.57973271450084    2.93894175793702
C         1.92517127384276    1.47169906918874    2.54916124017524
C         3.19086853034229    1.18592867003733    2.03455195166030
C         6.74925398670506    5.82644859978281    0.74556824322250
C         6.88841679350161    6.61868087125677   -0.38959036100067
H         6.00341520989957    6.93991240713644   -0.91718978459949
C         8.14407253209340    6.98113346780606   -0.84178765669777
H         8.23944852687780    7.59036150796675   -1.72889601262976
C         9.27728816655221    6.56557359395358   -0.16274615575985
H        10.25723489936325    6.85016250070158   -0.51643499670440
C         9.14812549840679    5.78411114924478    0.97303216798478
H        10.02807910960444    5.46057918103533    1.51007180085228
C         7.89366305833585    5.41486920598443    1.42309432110797
H         7.79380263234848    4.80914148492941    2.31291652652682
C         1.21742879836355    9.20552965906488    3.25079690437058
C         0.15210372756977    9.80854984797549    2.58802473605461
H        -0.43066727463576    9.22771543239455    1.88778454788530
C        -0.15828451536385   11.13596507383739    2.82034232993436
H        -0.98418336406902   11.59407352563776    2.29556684051274
C         0.58395425905544   11.87672418973241    3.72506703086874
H         0.33969609442371   12.91276329529317    3.90764171582761
C         1.63754716261496   11.28167744916032    4.39831866718480
H         2.21481760489862   11.85254274265789    5.11124537269844
C         1.95425872179804    9.95621723560961    4.16166500393665
H         2.77124749687889    9.48979915006970    4.69338815302339
C        -2.10501396619902    3.15112238767325    4.00110796921870
C        -2.99831330251543    2.69394857258762    3.03833862768434
H        -2.68320297222587    2.66522179114233    2.00614974005241
C        -4.27500993243110    2.30656146787449    3.40213405860898
H        -4.96591319197932    1.95758880313834    2.64862296249997
C        -4.66924880939639    2.36626953402094    4.72877625226135
H        -5.66583845090465    2.06110305613316    5.01251767012934
C        -3.78357245836092    2.82096905687539    5.69111378074020
H        -4.08805398862792    2.86976322131801    6.72674986719438
C        -2.50702590815200    3.21440918685789    5.32990054570862
H        -1.81365594792145    3.56883959598471    6.07978722748071
C         3.56087270186674   -0.23664607102832    1.86754114069425
C         2.87148988032640   -1.04728017816405    0.97139343801494
H         2.06965090140730   -0.62494085685354    0.38345294820485
C         3.21911760837219   -2.37721794096278    0.82006311029012
H         2.68003637933305   -2.99570679620819    0.11744891032010
C         4.25505095877513   -2.91585895259048    1.56474230886186
H         4.52380678648581   -3.95525090594717    1.44776069921700
C         4.94685733357820   -2.11593119886416    2.45856465958751
H         5.75609922851232   -2.53078156620256    3.04195979259756
C         4.60454715322489   -0.78430003070971    2.60705434553884
H         5.14332299482081   -0.16049672510738    3.30650895790174
C         1.60318940215478    4.48323319597219    0.53760649351334
C         2.42975841936675    4.89483927257049   -0.60405336541227
C         2.49311295626269    6.35176238807284   -0.87175592469980
C         1.57619727892139    7.22791267096972   -0.29467539743961
H         0.79854418368280    6.83416660001148    0.34718878135939
C         1.66446953311242    8.58157419634401   -0.56047930272448
H         0.96143792513620    9.26843035305316   -0.11425215959732
C         2.66006624001366    9.06565179941201   -1.39451279703734
H         2.72999535826508   10.12605904672201   -1.58810057739948
C         3.55797487617691    8.19383192167821   -1.99017809930039
H         4.32252513580482    8.57444136323065   -2.65207912994223
C         3.47010954275139    6.83884439248436   -1.73686683595477
H         4.14631432182936    6.13174774325459   -2.19550538478970
C         0.33535935599018    3.81677139021482    0.22457412901822
C         0.51283803292806    2.49161373050851   -0.48819700483809
H        -0.41269700272662    2.22399283921896   -0.99317280978971
H         0.75212100300801    1.72519437753339    0.24661497890693
H         1.34014094667999    2.55271122296806   -1.19283193662607
C         4.44324804345611    4.53442590557227    4.84565904839433
H         4.57481057526869    4.57683405526247    5.93223648565108
H         4.78707113371929    5.47097764259835    4.40607053506166
H         5.03719531590392    3.70946333474595    4.43834529760451

