58
CSD_code = KIZWOF | q = 0 | S = 0 | Stoichiometry = C29H20CrO5P2Se | MND = 6
Se        3.70943026700279    2.48400247245685   11.85064118838643
Cr        2.95451682917635    2.93372430081671    8.01765701644215
P         4.52020560238481    2.43709537667897    9.74107555216923
P         5.75972303034891    2.26952493865842   12.80367231032369
O         4.80369423458693    4.93261443680252    6.73353757246030
O         4.10159671901835    0.84272457775032    6.17342906055469
O         0.99233569565582    3.62964953254401    5.85384819982364
O         0.81001637203189    1.11768806493046    9.11428966330801
O         1.92946565424688    5.22425564501904    9.68986714169509
C         5.91567871753463    3.60793626296862    9.77973919985194
C         5.96588535869691    4.70170414937318   10.63478260617446
C         6.99115944117151    5.62384158342910   10.51813396271571
C         7.96070423246660    5.46629957922788    9.54255401217704
C         7.90071147164414    4.38917058185070    8.67106764895600
C         6.87878215946001    3.46681100166894    8.78161282458257
C         5.35146481736732    0.80937905939575    9.79902836616704
C         6.66693988239239    0.61439598331399   10.20836671214264
C         7.17029826804173   -0.67096128901751   10.31147831358633
C         6.37360974441912   -1.76237724993628   10.00978842423662
C         5.06450120268971   -1.57181869157973    9.59554575903361
C         4.55468338352123   -0.29136122928711    9.49298841972383
C         5.54908995122225    3.48476637094391   14.16096699435607
C         6.50713079484030    4.48148720391628   14.30101027388415
C         6.38819569317122    5.42313463635466   15.30865882901923
C         5.31048379797730    5.37464758112404   16.17598476729288
C         4.34826165590487    4.38601786620456   16.03450927086664
C         4.46410198179280    3.44300499175837   15.03174536889379
C         5.57070120058348    0.72075572858247   13.76482907002456
C         6.19944389838999    0.61146592814695   15.00229702503173
C         6.17688728774495   -0.58731990214182   15.69027681787554
C         5.54421357815015   -1.69222161008234   15.14473739766338
C         4.93446444737344   -1.59437500740696   13.90504863161566
C         4.95300857964950   -0.39713273056893   13.21532997571182
C         4.14173136864475    4.14937630201066    7.25322033592437
C         3.66605617379799    1.60537946578086    6.91580560027211
C         1.74049537181705    3.35925669928439    6.68526975714761
C         1.67238954875606    1.77675795523718    8.73798650190717
C         2.31525456026304    4.32982299358712    9.08204249043545
H         5.19894190980018    4.84138781754297   11.38724497864963
H         7.02636960073784    6.47071344167955   11.18751478518664
H         8.75867761705231    6.18800703874241    9.45227544304670
H         8.64773184238129    4.27394112480364    7.89985242574358
H         6.81374933633145    2.63290019609950    8.09242151849582
H         7.30042306689467    1.46083771744222   10.43360777035850
H         8.19088842227311   -0.81841004070154   10.63202539651256
H         6.77255059682740   -2.76189116766488   10.09544379604732
H         4.44120050192763   -2.42049352893343    9.35622296885309
H         3.52887145884971   -0.13153062251541    9.17928155415884
H         7.34393104418185    4.51263171110725   13.61619927563098
H         7.13584133199103    6.19538161648966   15.41579464052846
H         5.21598122015213    6.10957209136325   16.96152910379836
H         3.50404469837944    4.35323372210682   16.70720373099555
H         3.71383536076598    2.67051730671903   14.91052562274153
H         6.70043645972572    1.47068051598678   15.42744499650917
H         6.65725947930784   -0.65988128485015   16.65506147197848
H         5.52789171309266   -2.62744304432958   15.68424166521471
H         4.44286289213337   -2.45311102226763   13.47219248801815
H         4.47089847327238   -0.32656714874149   12.24979330513638

