64
CSD_code = KOBBEJ | q = 0 | S = 0 | Stoichiometry = C27H30Cl2N4Ni | MND = 5
Ni        4.68473198822559    8.74444180224835    4.81150503035562
N         4.53125999001230    9.81655130918318    6.57833517157352
Cl        3.96036074688310    6.80932190191219    5.80642248897805
N         6.27387476944534    8.32704456217041    5.51864002651016
Cl        2.90428548744997    9.31096155799383    3.97725647038757
N         4.88614627534377    9.23441579110213    8.70964424944983
N         5.68553846985806    8.35400869830310    3.09262871226542
C         3.74245733444734   10.00470569551725    8.68319150340443
C         3.53271036964438   10.36171295014965    7.32992778892087
C         7.68182130423554    8.13625923151194    7.41466750095283
H         7.88529029451853    8.33228944825863    8.45484085730669
C         5.32419983413028    9.16385470114377    7.42348413395821
C         7.21498070221913    7.79316218151940    4.72713373673300
C         6.47291342381907    8.50095791848193    6.83512793515160
C         2.44979673575622   11.14584774635487    6.94094515880908
H         2.29735264288132   11.37320146706530    5.89855526694842
C         4.64410268223117    7.39070955958801    1.09578379885800
C         6.81795795644882    7.77774906784510    3.32861170556733
C         8.42184440784074    7.35140623088234    5.26645716664987
H         9.16660953072693    6.89150515703441    4.63749956915267
C         5.32577767053203    8.37949382166294    9.79852310805638
H         6.12423610488446    7.75177916059909    9.39393124877153
C         8.65069504119260    7.53649939625067    6.61821174357945
H         9.58773260645611    7.22862058869890    7.05634223456309
C         5.14543205898727    8.48653817936894    1.80671038185782
C         2.87262102623140   10.45570671533484    9.66919126490591
H         3.00839969226439   10.21664463149522   10.71194258310320
C         1.59388834169265   11.57137771224087    7.92986485732658
H         0.73720441225879   12.17512567963952    7.67260803391432
C         7.71505175077980    7.18682747911317    2.28783117202414
H         7.29879409270628    7.33863229858485    1.29500720088646
H         7.84194693526053    6.11834000746773    2.45763024445308
H         8.69656510589594    7.65717332326700    2.33936413858382
C         1.80850793655646   11.23705760758460    9.27049817032862
H         1.11668049974038   11.59789291842717   10.01710888032207
C         4.19121852487335    7.44662309185694   10.22124276222303
H         3.80630228254266    6.92331937568075    9.34834055480579
H         3.37560839527223    7.99144468300330   10.68578899430180
H         4.56790212627762    6.71279144987190   10.92892768694335
C         4.11809322679758    7.61583285566843   -0.16907300451427
H         3.72834875821938    6.77763175633483   -0.72806997584904
C         5.07176008264182    9.79098646927053    1.28707765095102
C         5.87881746603085    9.20903541146226   10.95565123318944
H         6.67907091237786    9.86059883757905   10.60968601448161
H         6.27449220826846    8.54880612997079   11.72286063767153
H         5.10429431112511    9.82727735069136   11.39924154965582
C         4.08214248833630    8.88539020567461   -0.71051865494100
H         3.67529516207299    9.03921980095131   -1.69899592038599
C         4.54448215648427    9.96719374997366    0.01995696949673
H         4.48407594074256   10.95525265940698   -0.40599839998256
C         4.53591720112962    6.02279575838612    1.70657792956166
H         4.70485938003875    5.26458786204768    0.93724116789374
H         5.27028005659198    5.87663861617147    2.49891599688917
C         5.57574922559677   10.92128351773050    2.14255541862584
H         5.14700458185940   10.78394487005729    3.14885863649042
H         6.66422112245107   10.83579696955575    2.24515135096144
C         5.22215556992160   12.31651245811523    1.64839905364672
H         5.54966759251283   13.05568060747374    2.37653022232335
H         4.14637031970296   12.41085479263202    1.52641033622879
H         5.70990194425195   12.53745518725846    0.70102165239763
C         3.13953420626177    5.84827902282017    2.30820135920436
H         3.04069086335040    4.86154464755141    2.75364048113364
H         2.37333545959687    5.97550303265987    1.54726684211156
H         2.97654021311673    6.59170233213349    3.08488791988062

