79
CSD_code = KOBKES | q = 1 | S = 0 | Stoichiometry = C25H46N5NiO2(1+) | MND = 6
C         8.80808855550371    6.29352548658511   12.63856714185796
H         8.48402234171442    7.33464556053459   12.71673084984757
H         9.90321353240649    6.27372515591499   12.65417877092711
C         8.30543237512564    5.51234573019080   13.85090392819564
H         8.57363842635466    4.45942344501764   13.74104652366456
H         8.80468251276597    5.91668262057317   14.73964726017970
C         6.30448723532859    4.66867724311812   14.96815284718823
H         6.52470517603693    3.65663012850372   14.62471337004413
C         6.94541327446345    4.87845959632566   16.34632207919572
H         8.00086851033301    4.62514541763903   16.34073240680855
H         6.46421106112536    4.23609929828616   17.07749647841765
H         6.83135736623761    5.91078213820392   16.67471883515479
C         4.79008361266173    4.85884460188873   15.10704707667218
H         4.57857966023848    5.92427340695816   15.22781354887735
H         4.47957937513289    4.37461086918094   16.03274065414879
C         3.90034471864396    4.27644283943856   13.99908709657258
C         2.43132792594839    4.47136056973529   14.41303479363775
H         2.22528287084483    5.49229205971937   14.72430154128950
H         2.20386108360160    3.81849942639512   15.25047365894625
H         1.75825259375986    4.20917259156711   13.59863908724201
C         4.14344330063737    2.77574974776453   13.82978106650979
H         5.11001051394838    2.58694437400769   13.37717093538801
H         3.37174575076520    2.33487947237255   13.20134583850474
H         4.11309848154265    2.27747993325284   14.79365294802282
C         3.66918232146695    6.28713280786088   12.55131603086017
H         4.04273948425306    6.88716949876172   13.38376467380945
H         2.57291770340515    6.33282615036212   12.56332774920805
C         4.16279269594147    6.88536326611556   11.24040714724563
H         3.79489568060330    6.29778849214928   10.39400869415675
H         3.75872284427058    7.89970388849863   11.15649847408802
C         6.17615965279088    7.47553439789381    9.95810926868366
H         5.96115355621996    6.77859588694460    9.14242530313976
C         5.52713601331707    8.82511211233716    9.61871491741378
H         4.49074951282379    8.71624846258680    9.31341103697487
H         6.05715387455462    9.28326513017960    8.78891084798178
H         5.57981823928250    9.50715779035755   10.46537088650844
C         7.68942411664241    7.70591238848125   10.06499752559740
H         7.88224855323105    8.36116713472128   10.91736600853948
H         8.00234717674753    8.25113217393513    9.17442328501983
C         8.58846672079700    6.46118617577339   10.16262406633479
C        10.05532621043428    6.91306291249902   10.11081315111343
H        10.71998825152164    6.07917937672459   10.32392169469090
H        10.26039972868021    7.71475986520950   10.81473959615255
H        10.28793609811882    7.27704140845567    9.11401800895539
C         8.33623173650040    5.51664689406718    8.98719758562136
H         7.37046219863535    5.03249439472255    9.10327321694638
H         9.10631235685802    4.74964006715098    8.94930821631988
H         8.35108574328020    6.05838175417317    8.04573869562429
C         6.82277233273576    2.40716540125585   11.36835623425588
C         6.24319775061629    2.59718034672883    9.94430727377917
H         7.09897893969227    2.77520544674845    9.28280606933557
C         5.50257630720042    1.34355670313886    9.46781606083383
H         6.17292213033713    0.49403160009920    9.60479146311006
H         4.62473865222045    1.17978237938972   10.09848841883484
C         5.10384411873556    1.48702649740990    8.02593310688288
C         6.04242318403166    1.28826402718575    7.01965709563367
H         7.04325092863769    0.97760185792952    7.28305799742325
C         5.69988101734597    1.46639624597601    5.69184379157162
H         6.43555829867396    1.29836662677457    4.91998061537679
C         4.41334412384255    1.85178429019092    5.35122646763384
H         4.14398678673581    1.98559487888767    4.31490869845644
C         3.47163480624171    2.05327808368306    6.34480038678482
H         2.46434910906377    2.34401338685703    6.08594431484120
C         3.81714814087111    1.87496608884327    7.67401500036342
H         3.06772783241743    2.01629138827609    8.44232565874985
N         8.28412351638257    5.71264550258507   11.39856639059801
H         8.71419148351889    4.78910350621925   11.31227654054161
N         6.84589192793001    5.58634739859616   13.95015193651075
H         6.60379543655484    6.53514031972679   14.24370710554783
N         4.17377317109973    4.91901023772302   12.69080438061339
H         3.66907086266308    4.34879552197174   12.01067248150186
N         5.63218686200702    6.88479294837502   11.20098278929165
H         5.94592485106832    7.48138497676340   11.97048198230104
N         5.38745114718948    3.80348314957405    9.94447454663854
H         4.46609661821593    3.49612835391632   10.25927690440791
H         5.25397181234583    4.10961364031478    8.98118203365490
Ni        6.20813720186668    5.09319419690732   11.68063551172415
O         6.81981259400137    3.44713211345217   12.12008344574581
O         7.27075733025087    1.34032874135215   11.72606047876004

