75
CSD_code = KOBLIY | q = 0 | S = 0 | Stoichiometry = C35H31N4O2PPdS | MND = 4
C        14.97044781026892    2.87190261688125   -0.80172605780934
C        14.53892727936357    3.54283930436653   -1.93789209133320
H        13.49591846740829    3.81748332094852   -2.06190711053203
C        15.44993792269851    3.87476603511505   -2.93236467535091
H        15.14992901933948    4.39598045404486   -3.82869378862836
C        16.78872935818729    3.52503358988120   -2.76984373117158
C        17.78329722274567    3.86411772162130   -3.81972336318030
C        19.19608139402249    3.44756790726291   -3.51485458908963
H        19.85473739569835    3.72799772813267   -4.33211501476918
H        19.22538572692277    2.37227981354358   -3.35795218746326
H        19.51700148734642    3.92380380345116   -2.59174587633726
C        16.35206661911054    2.57744696398902   -0.74259403846259
C        16.82278672573629    1.88972394284900    0.45099489814573
C        18.25628926868026    1.52277468825257    0.64517223020659
H        18.64825875438733    2.02153906240060    1.53142867794311
H        18.82485357398552    1.82060220162895   -0.23003161633141
H        18.34599985373729    0.44842823778397    0.80415350693946
C        15.20380490150822    0.73346742687906    3.24722931506654
C        16.51602000582482   -0.40367763693845    5.03423169903248
C        17.78405526511596   -0.29854367507007    4.47589702562517
H        17.89735070634892    0.19677791203293    3.52695873184835
C        18.88705090437339   -0.82278540998254    5.12688907567526
H        19.85490441855220   -0.72277541894165    4.66155412132023
C        18.74467293428966   -1.46255823978753    6.35235540912159
C        17.47107132080214   -1.56598655876108    6.91513764972651
H        17.36874216753761   -2.06304930771862    7.86649959952240
C        16.37502112513971   -1.04555246383734    6.26690450132792
H        15.39526826484124   -1.13464787679546    6.71448909401941
C        21.06637808321387   -1.94382817082301    6.55633535699152
H        21.14625229678070   -2.46409558829138    5.59604447637556
H        21.70200718645194   -2.44082795244589    7.28761646838110
H        21.39733397027371   -0.90692536860395    6.43610639271027
C        11.77639527222748    1.83124912812989   -1.41353434204224
C        12.50232932745443    0.64648720363359   -1.54567918125492
H        13.13469424274335    0.31234450155997   -0.70938137308986
C        12.43007431053786   -0.08613699698979   -2.71447543983332
H        12.99029500819865   -1.00364807503738   -2.81685616224853
C        11.64346399541083    0.36819252849885   -3.76274971810614
H        11.59228679655706   -0.19725153801700   -4.68116228823148
C        10.93251024192213    1.55010449655133   -3.63953535849986
H        10.33001439608117    1.90525071342248   -4.46263765326720
C        10.99324821917637    2.28387346795139   -2.46637704049458
H        10.44781062076826    3.21214328223998   -2.37902485742274
C        11.69324823763607    4.43156175276422    0.05162182948163
C        12.74225783504734    5.27801539374920    0.40141889051759
H        13.69403943379914    4.83650826340386    0.71540362205181
C        12.57037862297238    6.64925073937064    0.35603576109381
H        13.38381454161149    7.30694393385640    0.62398632393334
C        11.34897079896182    7.17732528976065   -0.03167789099118
H        11.21400222592244    8.24789960108176   -0.07348437276018
C        10.29343021542079    6.33683934293824   -0.34971776363001
H         9.33748541752620    6.75423819298674   -0.63041944121718
C        10.45742736303247    4.96433356133605   -0.29942643539562
H         9.62648656953137    4.30575478565374   -0.51231041401842
C        10.57090100001769    2.12101459920967    1.16029844792440
C        10.45589657944592    2.66335421541139    2.43840984966923
H        11.21297210605032    3.35772100944078    2.78488326591709
C         9.40120891227942    2.30176721171776    3.25197170097608
H         9.31431483049290    2.72099239585395    4.24344670812084
C         8.45810581847174    1.39258989334951    2.79614282955394
H         7.63417244791532    1.10601903040682    3.43289262187438
C         8.57566254348628    0.84480009002264    1.53021959560527
H         7.84423121909310    0.13101452630079    1.17995746165164
C         9.63125075894128    1.20347666705292    0.70892463136896
H         9.72684190043592    0.76955061409663   -0.27693032498065
N        17.23039885840103    2.88789626495934   -1.68718686271471
N        15.90616105385612    1.63277654912920    1.32410871752230
N        16.21381309441696    1.00107962247428    2.46300282046930
N        15.36907425443594    0.09631171005518    4.42786147323204
H        14.50586762269155   -0.05139879508448    4.93580221671559
O        19.76181624947208   -2.01380693897630    7.07567886995158
O        17.46612765137914    4.43523785434577   -4.84049247653520
P        12.01831565747676    2.65052596149721    0.19219524680385
Pd       14.08774259146000    2.13882830292400    0.84323508979988
S        13.54477972652624    1.13239058392820    2.89620733295371

