31
CSD_code = KOBNUN | q = 0 | S = 0 | Stoichiometry = C8H14N6NiS2 | MND = 4
Ni        2.12651252395526    2.78541510941286    7.54091874153816
S         0.10062319488217    2.78272103107510    6.73988569537177
N         3.97643621278791    2.78899895242970    7.90885094918876
N         2.71392766241692    2.79857816045786    5.74864385749358
N         4.47156972481529    2.78300669182288    9.14929625156384
N         1.87618526587251    2.80377321844419    4.70844165883365
N         3.89675085897379    2.77617738174204   11.35925421989986
H         4.88480767256534    2.75877620526835   11.55373619791579
N        -0.33162044752721    2.80204916484872    4.12477811481450
H        -0.01665945316554    2.80474523130240    3.16809627215526
C         4.68439175449759    2.82194028580691    4.26892380089856
H         3.92986213866632    2.76337160655987    3.48952129900390
H         5.36865620365548    1.98000793717784    4.17903759102013
H         5.25763520053433    3.73998582335698    4.14566536910569
C         6.23280260454978    2.80831293626447    6.91868759333067
H         6.54025854309574    2.87084189228877    7.95875893086050
H         6.63369409103619    3.65708815484121    6.36740033318947
H         6.63618372405678    1.89692688127161    6.47909455291867
C         4.01107475513966    2.80622196788599    5.60094435826734
C         4.74183795807664    2.80109826824011    6.85127108985270
C         0.61002823395514    2.79644312953077    5.07464577225779
C         3.53110040705270    2.77558784593368   10.07265412334196
C        -1.74139367324400    2.79073070595900    4.41103488957344
H        -2.29777717350044    2.82266747848207    3.47862349082560
H        -2.00899044813861    3.65252697000383    5.02655284371112
H        -2.01048481557268    1.88924096795443    4.96678179080748
C         2.95660182244519    2.75515529753241   12.44778858279451
H         3.49405595770196    2.83445375023816   13.38850703219751
H         2.37470499457353    1.83031707538441   12.43628274718050
H         2.25753687308311    3.58868297635176   12.35428647882810
S         1.83008763275912    2.76955690213139    9.69893537125919

