291
CSD_code = KOBNOF | q = 0 | S = 0 | Stoichiometry = C130H146N4O10Pd | MND = 4
Pd       11.70425478422843    3.29439526131649   15.18457262081990
N        12.10556704896891    4.99667326627665   16.32869246386060
C        12.55416991107241    4.71542769463813   17.56870443631290
O        12.80212098601649    5.51195737066781   18.46322232400341
C        12.65823630207850    3.22552371008102   17.80349503517184
N        12.24648363974407    2.47064427977869   16.78792987217386
C        12.18340141665807    1.14266844914675   16.87869016979522
C        12.57171117885940    0.49755983997251   18.04613365054835
H        12.50345568011996   -0.57800623326254   18.09104890805703
C        13.03530894448198    1.26197928312422   19.10818649240210
H        13.35435349544978    0.78383789070422   20.02203072359091
C        13.07583234619553    2.64445005764173   18.99487338353986
H        13.41369120805753    3.28235726433005   19.79626904052067
C        11.68415356172926    0.44302889592916   15.62798194546822
O        11.53964693934611   -0.76945634151219   15.58444050640320
N        11.49669726052374    1.32791810498351   14.63159045700312
C        11.08547244086702    0.92001224344594   13.35804290162965
C         9.97051669641575    0.11295333509616   13.14789276118545
H         9.42812703207398   -0.27546138590025   13.99604243541301
C         9.55991144268841   -0.17013555842531   11.85864909560285
H         8.68143075940597   -0.78123448852482   11.70502468375297
C        10.24879024483288    0.32615133367584   10.76048193619128
C        11.39099694995671    1.09033812774624   10.97825898927601
H        11.95550738027964    1.45848099703331   10.13309526284195
C        11.80800494954228    1.38623495175606   12.25714016711679
H        12.70043275612501    1.98189241440278   12.42532194600407
C         9.77957077886489    0.06634484108729    9.35440930741886
H         8.78005921904486   -0.37775488155764    9.38139972999715
H        10.44551061653824   -0.65617847939223    8.87356752033412
C         9.74187348323367    1.32829991203909    8.53300960096911
C        10.23732787686633    1.35472184074974    7.23433651328972
H        10.66180414350472    0.45818333818244    6.80511036145842
C        10.19550890263979    2.50956320706923    6.48212774522003
H        10.57790863307043    2.53202753579397    5.47360955113153
C         9.65431951882521    3.68184501065180    7.01216729650208
C         9.15681471893528    3.66489034633318    8.31062838592477
H         8.72008987221959    4.55197168571869    8.74328337101599
C         9.20356752031776    2.49712800643754    9.05316388823888
H         8.81517355771586    2.49586827379794   10.06217339907655
O         9.67367580564390    4.76352792124405    6.19020982299199
C         9.18708452836606    6.00731478846525    6.66239183496108
H         9.82274916347498    6.37416592277261    7.47833390267344
H         8.16357803254060    5.90230777747652    7.04181422689365
C         9.20729499054009    6.97439568810845    5.48196605207012
H        10.13386750507670    6.81658542986825    4.92672281602479
H         8.37792808941748    6.72740648695995    4.81839956802333
C         9.10905758942866    8.43491396001172    5.92177267646189
H         8.67165559123048    9.02261431339205    5.11101127709587
H         8.44385709474234    8.50354483529544    6.78275298048108
C        10.47000885268238    9.02832657606185    6.27910830089494
H        11.11573140473424    8.98408816308001    5.39945379144026
H        10.94194725880872    8.44143428322101    7.06750890594559
C        10.36140379321659   10.47967409472486    6.74863107376321
H        11.32983726065728   10.97281359727228    6.64806828482235
H         9.63689185925966   11.01586104101439    6.13318627918178
C         9.94444406319491   10.58383462221320    8.21236742497629
H         9.69796161830613   11.62592335647984    8.45820647417273
H         9.06823786991412    9.95436416027400    8.41333105128328
O        11.04057636197163   10.14952496300876    8.99344012959686
C        10.96756878644147   10.24561400404937   10.34517478785461
C         9.86436054613508   10.69237477997207   11.06182326764266
H         8.96534215883090   11.00990337810232   10.55697589864304
C         9.91365255061531   10.73655449131833   12.44798300832539
H         9.05008961063021   11.09881319673361   12.99034295192169
C        11.04448906564820   10.34589599235697   13.14559159115353
C        12.15174941055077    9.91020764528025   12.41997539840873
H        13.04959447500442    9.61066127966649   12.93986214625500
C        12.11412628489452    9.85929535564377   11.04454448744452
H        12.97325288747794    9.53442870041060   10.47896781178460
C        11.09006920445352   10.34903601273943   14.65124772345090
H        10.13933392915388   10.71328320397090   15.04801227781944
H        11.88190201389121   11.01866035657057   14.99315782949552
C        11.35979268147977    8.95477361563407   15.15359610465857
C        10.43780865176706    7.94162941552163   14.90929838089533
H         9.50451472191127    8.18253081136880   14.41860910570007
C        10.69373810039996    6.64493548383939   15.30252171860738
H         9.97153672202341    5.85015002545095   15.12639009725234
C        11.87976264401542    6.33053814927779   15.96856249119873
C        12.79162694645888    7.34847061700334   16.24506371382910
H        13.69182803816785    7.12593842637475   16.79526099828327
C        12.53081425538170    8.63925489545316   15.82770361385879
H        13.25095083044012    9.41704167017939   16.03596901706956
C         3.98309826049026    9.14775447824374    4.46620811674867
C         4.16076262455744    8.63258148659051    5.88930240604139
C         5.38436662219470    8.28130002478839    6.43112790605515
H         6.27722019824586    8.33431742076679    5.82875539686447
C         5.50336375883260    7.86902332852909    7.75059948973012
H         6.48350375093569    7.61502238790406    8.12398516383458
C         4.37869512375918    7.79583495449636    8.56029314682512
C         3.14065192465714    8.15343160079950    8.02326195793418
H         2.27157642606203    8.09933720985561    8.65992500064625
C         3.03842798828748    8.57099198628852    6.71625321159477
H         2.07360709647766    8.86098526162172    6.32594920408285
O         4.35393234946195    7.38795959391015    9.86435979957918
C         5.56360677242577    7.10802945933315   10.52785089142556
H         6.20905464764861    6.46742468703046    9.91561071131919
H         5.26593829227652    6.54615805036202   11.41907893181615
C         6.30893366982707    8.38018151818096   10.94608998938226
H         5.64019660591806    8.98595138363645   11.55962837366413
H         6.56652533445733    8.95682291459852   10.05616794157567
C         7.57978509759609    8.05266465365574   11.72461281903316
H         7.99150461568977    8.96493053566971   12.16413389002320
H         7.36030938454167    7.36498584081524   12.54350611099298
C         8.66750909103884    7.46416416614327   10.85377130730693
O         8.61272286556689    7.45101935505325    9.64917747650247
C         9.84502184159166    6.90579952006790   11.62548163076625
H         9.47105352583787    6.20576450843936   12.37613235408807
H        10.31396402916317    7.73790870761121   12.15541232716916
C        10.84129818593118    6.21528444386488   10.69960439326299
H        11.28770380225031    6.95453555422487   10.03343389571364
H        10.30238086306069    5.49525596785693   10.08130470708339
C        11.96226107941967    5.47686601981994   11.44632317307091
C        12.97425045903271    6.45740400433665   12.10228751866584
H        13.49843649731204    6.99109956479061   11.30755019554083
H        12.41581869328812    7.19224263894638   12.68377928155480
C        13.99943261136459    5.79641317771691   13.02289095364419
H        13.51166925202964    5.21820895282292   13.82152698620497
H        14.62747909474185    5.09912990475886   12.46356594267112
C        14.88849508030445    6.83597740298808   13.67707567879809
O        14.84519007361538    8.00264888149350   13.37829982431353
C        15.81637771701900    6.27888241123142   14.72670722630249
H        15.21495476290940    5.76541545658739   15.48057288304210
H        16.46399714482499    5.52986807580613   14.26476140879361
C        16.64209887436403    7.37058144154407   15.40167699406887
H        15.97265335053686    8.17866737558822   15.69879965343817
H        17.37446144776573    7.77724999229521   14.70360069245271
C        17.36024013580512    6.84672342077612   16.64054543651611
H        18.03010267620648    6.01561069871352   16.37358883345627
H        17.96124336448435    7.65181101044136   17.08442791666871
O        16.37754423719139    6.40749651195645   17.55226056416393
C        16.75318794720722    6.07715582539172   18.82308286666758
C        15.71874824134347    5.74907422597383   19.69676189622472
H        14.70456717487893    5.76583476032313   19.32953106929524
C        15.98851826375738    5.42395003017708   21.01008146064473
H        15.16535418660930    5.16931302443214   21.66037952181781
C        17.28931081307031    5.43671623921727   21.49847770592997
C        18.31675838164659    5.71867250687056   20.60655279521870
H        19.34102167368152    5.69111743715891   20.95003044537284
C        18.06339542172134    6.03963291256808   19.28477052411986
H        18.89482180475957    6.25402929762521   18.63080889379501
C        17.64773602262261    5.06367870289192   22.93094931352020
C        18.38489362232557    3.74342932356428   22.76802197167699
C        17.68522864139568    2.63759920235763   22.29883407379534
H        16.62651316084584    2.72714839914401   22.09982912213160
C        18.31553658124184    1.42711288597486   22.07993664114506
H        17.72047468366351    0.60154239910205   21.72388272730062
C        19.67864013166916    1.27365663697741   22.30450544913442
C        20.37893345465305    2.39384723445391   22.73941437137349
H        21.44362816879180    2.33370266546410   22.91079566168798
C        19.75132321239651    3.60565203534320   22.96174795650304
H        20.34207944495773    4.44858645109944   23.28906179308487
C        20.41585885830203   -0.03920649933976   22.09182213590755
C        21.51795571698202    0.16608818971962   21.04307640424623
H        22.24580592657702    0.90255578884400   21.37193290848362
H        21.08491582765530    0.50965194713418   20.10583019219957
H        22.04066698619725   -0.77054169154174   20.85987454694052
C        19.49571379883487   -1.16095024810017   21.60262237919978
H        18.70782251866936   -1.36371930257236   22.32444326694129
H        20.07411507023673   -2.07357348223807   21.47206337381169
H        19.04612673767952   -0.90835268170820   20.64504952348066
C        21.04136123608116   -0.47970314912952   23.42297417997227
H        20.26673610182378   -0.61612792577620   24.17496984980773
H        21.74690716143883    0.25953369966171   23.79204103455277
H        21.56972709951135   -1.42250717751024   23.29650175085309
C        16.43241942347689    4.95684053945219   23.84177963755682
C        16.19286142563222    3.86816616728325   24.66383078530302
H        16.85442721373263    3.01436940187037   24.64260287806957
C        15.10948610885724    3.84926981824427   25.52846913122369
H        14.97048722900220    2.97293161977768   26.14108797476386
C        14.23124202845528    4.91961096217013   25.61437176977292
C        14.49648610890182    6.02448908979667   24.80761828431297
H        13.85521060209997    6.89224161097549   24.84841796506127
C        15.57513105535475    6.04855226457769   23.94915972775556
H        15.75923411037413    6.92987188366069   23.35187868864237
C        13.02765608161119    4.93899258057901   26.54318226010183
C        11.75400779912936    5.13528541605925   25.70875807832591
H        11.77798209659463    6.07464674227619   25.16371156987450
H        10.87860459027771    5.13860702374872   26.35513125393822
H        11.64812998923700    4.32670055737709   24.98830978529704
C        12.87774866624872    3.64208583920629   27.34326188878329
H        13.74209481654703    3.47350332714056   27.98145838558336
H        12.75012076237561    2.78759707060851   26.68255652537300
H        11.99806190370541    3.70864036297775   27.98063395410257
C        13.18222895819702    6.09929313676615   27.53635200327291
H        13.23340460601710    7.05515785994325   27.02254654176357
H        14.09363650558812    5.97674511369009   28.11809325054252
H        12.33599096953384    6.12400664798186   28.22004678393003
C        18.47933803852477    6.13352776095264   23.62548324291142
C        19.01112346575192    5.86451122398785   24.88347803693573
H        18.87028540261649    4.88681619915448   25.32222238717825
C        19.70799272556128    6.82766145222133   25.58255381595873
H        20.10503203872898    6.56978833028124   26.55326602021675
C        19.89417152454716    8.10957117868525   25.06897712965891
C        19.33753776448130    8.37938466429026   23.82731745747817
H        19.43181996984716    9.35703331836277   23.38284441409003
C        18.63832127525192    7.41372310781916   23.12116086804311
H        18.21158977931040    7.67712500570296   22.16474209896067
C        20.66264090732365    9.14190005292171   25.87865707151406
C        22.07557667309143    8.61216549339613   26.16079613383173
H        22.59682865607302    8.41615810408996   25.22589995951940
H        22.04615071487236    7.69001188571169   26.73439994402679
H        22.64562043840691    9.34650266248458   26.72640396048146
C        19.92443516708464    9.38465343536427   27.20258912214756
H        19.85401824061048    8.47254200852911   27.78872558662135
H        18.91535773408324    9.74286489815066   27.00915895214047
H        20.44953985791516   10.13179206162069   27.79436623007370
C        20.79422768894205   10.48311501148219   25.15174870609124
H        21.31996930509604   10.36562356964522   24.20686624672281
H        21.36238841601568   11.17635459087971   25.76909596260286
H        19.81805907561463   10.92420305223766   24.96417536777332
C         3.28653913507222   10.49467263741681    4.62733642267719
C         3.86069044054987   11.44084044681477    5.47372500417762
H         4.78479849639892   11.20489903819796    5.98307540147738
C         3.26890153781211   12.66942018346796    5.67700621410088
H         3.75662428666593   13.37065728534779    6.33797690619689
C         2.06857838888980   13.01125311443385    5.05704680776957
C         1.48905228372236   12.05590596659518    4.23557472417538
H         0.55252314688102   12.25270110205845    3.73938965796518
C         2.08327110435719   10.82086358927840    4.02575287724564
H         1.58263517097811   10.10946798549837    3.38641833953661
C         1.45440029266899   14.37921037270436    5.30756713382859
C         1.16289824472813   14.53022519710014    6.80714225163488
H         0.47539533603088   13.75359116931648    7.13594863291896
H         0.71007952786243   15.49951863802767    7.00558689703264
H         2.07173781177090   14.45144798530661    7.39720001511077
C         2.44590256025691   15.46225987455207    4.85911516430028
H         2.67212151730625   15.34930873638764    3.80071099517716
H         3.37742134831899   15.40128477992770    5.41497764155593
H         2.01899339393954   16.45051021462486    5.01722973629377
C         0.14425351686527   14.58690706231406    4.54311971346221
H        -0.60649440954866   13.86204122154336    4.84919387436374
H         0.30064109352301   14.50686219690655    3.46980217787236
H        -0.24441278923739   15.58153986533605    4.75288465266199
C         5.31259527876513    9.28227937598876    3.73091118979597
C         5.84852105635393   10.49053328099795    3.31852129243611
H         5.34255789745789   11.41707803322904    3.54410631860807
C         7.02751754752064   10.54131781532769    2.59029695927922
H         7.39179359605450   11.51163749849052    2.29354732904265
C         7.71274489550749    9.38918087730641    2.23430457273273
C         7.16872925799986    8.17542390373099    2.65127113942613
H         7.65584440248838    7.24729490069346    2.39141989652341
C         5.99910330940087    8.12141416286224    3.38019504077794
H         5.59755357113811    7.16048677664384    3.67035848870812
C         8.97993005911167    9.40004404312219    1.39412108905598
C         9.44562193277549   10.81693096760175    1.04758140865372
H         8.69812991344220   11.34252803503857    0.45806367528386
H        10.35957842404019   10.76426858641007    0.45920115901012
H         9.65784844152970   11.38989288555105    1.94754555734147
C         8.70243261721738    8.65116176530435    0.08279964868612
H         7.88601015057762    9.12719834332110   -0.45646383161339
H         8.42837108160931    7.61662036374803    0.27007855758379
H         9.58720578192124    8.66137753218764   -0.55044950166204
C        10.11199732997765    8.70222105863371    2.15938839907650
H        11.01872889676262    8.69346456978764    1.55780619333398
H         9.85409282218540    7.67547364954180    2.40145977942608
H        10.31827923661975    9.23178811807244    3.08657320707636
C         3.16695212274048    8.18595404305407    3.60996236826012
C         3.00667569505049    8.47298298360109    2.25825954848050
H         3.44712492039635    9.37287069531159    1.85163641157391
C         2.30097198117270    7.62989516913939    1.42092349913246
H         2.20617063773087    7.90823564303086    0.38384042341889
C         1.73355304046201    6.45312144970934    1.89557959156426
C         1.91503019622962    6.16211233745862    3.24318568150491
H         1.50617031299293    5.25385012975777    3.66062810797363
C         2.61746692971027    7.00517384023441    4.08520973396170
H         2.73940202261942    6.72404451639318    5.12039596627863
C         0.95131818955175    5.49154526716386    1.01522979501268
C         0.84962420205548    5.96966434034198   -0.43572036507187
H         1.83466755471141    6.05985248783378   -0.88784662746746
H         0.33975556580335    6.92839862879651   -0.49712289036679
H         0.27845000255863    5.24777396473439   -1.01624192817660
C         1.65233760807736    4.12573517426706    1.02078857855823
H         2.67101673337528    4.22512387410513    0.65132083609965
H         1.11859567924796    3.42725863388375    0.37956615218146
H         1.69307602940724    3.70565978921594    2.02189982704359
C        -0.47188187196641    5.34748250801191    1.57241246562438
H        -0.46261814055125    4.95416777738184    2.58510770709375
H        -1.05229756390278    4.67042691936052    0.94899307766752
H        -0.96938011634196    6.31515025946310    1.58731625994629
C        12.74561636711359    4.53580984389683   10.49536428486180
O        13.61370846980952    3.79806752072820   10.88071978385335
O        12.36787162674571    4.68431982667153    9.24394738299823
C        13.03379443665059    3.90831342564347    8.23518232733375
H        14.01670079694005    3.61127553293535    8.61458766359585
H        12.42977754823288    3.01302599532052    8.05645087634103
C        13.14416772685143    4.74216324836278    6.97244146803295
H        13.64960890741698    4.16358497416564    6.20507585618788
H        13.71183810645551    5.64957777875841    7.16281409246709
H        12.15579629142006    5.01210680377867    6.61306276680778
C        11.46327591431765    4.67968064106191   12.53438648059936
N        11.22324241079046    4.11372216755076   13.50920845419883

