88
CSD_code = KOBPAT | q = 0 | S = 0 | Stoichiometry = C41H38N4O4Pd | MND = 4
Pd       -3.50707037568189    0.36561244234948   11.72303515701407
N        -5.22034036047362   -0.77727224510982   11.81160745319323
C        -6.15602008501564   -0.31145941742631   12.66133859808773
O        -7.21447343909180   -0.83909160699223   12.96910400037873
C        -5.77410573721861    1.06851205776933   13.16886882725005
N        -4.57617891110410    1.49610839841320   12.77097502003012
C        -4.11709624253306    2.70801156190258   13.08124609672383
C        -4.89017636696372    3.57927535573762   13.83899762848037
H        -4.49653420721090    4.55598947165103   14.07228438444818
C        -6.13963685323805    3.15629186074242   14.27148970147280
H        -6.75831736389963    3.81319706527051   14.86437809333416
C        -6.59174544925593    1.88653320948106   13.93888756620922
H        -7.55480217963426    1.51452903585640   14.25108898475507
C        -2.70613468296374    2.99664466633160   12.59905541914923
O        -2.16593658878951    4.07233728360046   12.81123354678270
N        -2.17213859733530    1.90826504320123   12.00955014342020
C        -0.83517455265922    1.86670996360681   11.61019205210202
C        -0.20312922878073    2.89723565736914   10.91903980144085
H        -0.74317569239968    3.80684234898660   10.71029727975371
C         1.10592808156487    2.74314196038987   10.50180428253039
H         1.58143895633880    3.54342841283243    9.95225314375985
C         1.81759967527971    1.58212288567891   10.77009962379170
C         1.19407967012865    0.56973389605060   11.49469080015614
H         1.74571619066188   -0.33027451025236   11.72975820414567
C        -0.11259790643145    0.70653189117509   11.90858753655251
H        -0.60522807527269   -0.07687845088748   12.48383105781200
C         3.23437772204568    1.40865778879417   10.29902243773941
H         3.90396344908152    1.38895903709702   11.16468720006050
H         3.52089550158365    2.27202111067788    9.69028817038264
C         3.45462349579778    0.15514642178859    9.49012112454703
C         4.71106405452135   -0.43012419389880    9.44493950078937
H         5.52095755768512    0.00334788041767   10.01459328546574
C         4.96208633470309   -1.55566872715584    8.67899054832458
H         5.95802746761709   -1.96973015012687    8.66666443566939
C         3.93579624342556   -2.13282230273536    7.94107601448360
C         2.66565067424434   -1.55649103927475    7.98884350887323
H         1.87922747746159   -2.00941880632774    7.40389828664056
C         2.43422214304125   -0.42561887552317    8.74412210529693
H         1.44951147736203    0.01957140961293    8.75469571096979
O         4.05875401202395   -3.24030540099019    7.15872457238436
C         5.34295793266661   -3.79507266726714    6.95397002763842
H         5.78446210630464   -4.11279091070760    7.90861799516609
H         5.99846372838148   -3.03679229791243    6.50297030685780
C         5.20664514308876   -4.99279688692517    6.01514415309605
H         6.15608838416563   -5.13484595515518    5.49610831786282
H         4.44941364431437   -4.75229054530670    5.26924316394709
C         4.84907326420672   -6.29582282215507    6.73249868860008
H         4.74575889951767   -7.08345033484273    5.98302084957906
H         5.67906712982991   -6.57188340910706    7.38808528976964
C         3.57278146689289   -6.23259580431654    7.57072320765920
H         3.45494287246884   -7.18796258773958    8.08913691420682
H         3.67081275125119   -5.45566729132822    8.32995083437442
C         2.32335841204332   -5.95772267585410    6.74071869719291
H         2.39332094330594   -4.97356501205783    6.27947572802802
H         2.22152487241660   -6.70341370303705    5.95060440185453
C         1.07261213976944   -5.98925917946361    7.61071267152422
H         0.96679281051796   -6.97299636611380    8.09015231065511
H         1.14949944803642   -5.22410537585723    8.39726478375319
O        -0.04130903147269   -5.73062868486455    6.78174185164172
C        -1.28711410721150   -5.74819209603637    7.32888200295691
C        -2.34653049872499   -5.55688918434789    6.44139121718525
H        -2.11964521026386   -5.42855291732059    5.39477673496281
C        -3.64765064888676   -5.53404794348451    6.89765244260150
H        -4.45307412953554   -5.38547129841236    6.19281453430236
C        -3.93576575821618   -5.70083284295537    8.24726873379375
C        -2.87904533937117   -5.89705394354296    9.12413845268881
H        -3.08184596219258   -6.02457629923794   10.17799454001663
C        -1.56668661868132   -5.92412301528487    8.68101241444029
H        -0.77437616207516   -6.08840159469410    9.39547662819920
C        -5.34003214744904   -5.58301189888360    8.77596260649567
H        -5.58413956359285   -6.44202161732031    9.40381756396881
H        -6.04762977788445   -5.55293692645513    7.94438670854550
C        -5.43637298841749   -4.31466338643930    9.58627986537548
C        -5.81450489043642   -4.32292467370742   10.92095823252684
H        -6.11682987103173   -5.25197421382388   11.38377613359149
C        -5.79941811956605   -3.16492264729980   11.67745634764111
H        -6.09226708572712   -3.18135991340991   12.71533099051288
C        -5.38204506115395   -1.96798213440072   11.10160759243114
C        -5.05363564102210   -1.94609688315616    9.74205005524380
H        -4.77637116108357   -0.99413360613351    9.29162526239935
C        -5.07680759667031   -3.10462255608628    8.99932498310144
H        -4.80535856380353   -3.08185163398616    7.95311100808769
N        -2.42079984330670   -0.79447426447967   10.63198842261327
C        -1.82107597663340   -1.50304405918657    9.95244453023492
C        -1.07272662369037   -2.37682137507778    9.10959751429020
H        -1.46016915092704   -3.39464115834353    9.19380801561974
H        -0.02091876778002   -2.35291167175759    9.39708221996183
H        -1.16663694099373   -2.05170412481310    8.07358274840424

