45
CSD_code = KOBSAW | q = 1 | S = 0 | Stoichiometry = C22H16CoN6(1+) | MND = 6
Co        5.17467472119270    6.63942730301164    3.61027503379093
N         3.53632963440940    6.17759968103875    4.38663086708100
N         5.95822211999785    5.78290174374150    5.16452512198011
N         6.80002199377530    7.13566018056726    2.82821773987918
N         5.32625287439685    5.04931844870338    2.50956183088138
N         4.90763953987288    9.09147856278632    5.29730896192625
N         3.98948724322724    7.98544040078006    1.21991447492544
C         2.31652831389851    6.42526999182901    3.90640970254704
H         2.25696284706019    6.89842579858721    2.93630359973110
C         1.16138941680556    6.11323202285332    4.60054400256507
H         0.20169927032572    6.34086741121867    4.16681412371960
C         1.26600059076020    5.52273214244252    5.85085486320173
H         0.38674771293662    5.27673110145446    6.42457394146613
C         2.52823295813098    5.26025734309438    6.35115466069668
H         2.63986876347880    4.80492253791512    7.32072886353864
C         3.65022554055842    5.59963790636428    5.59872835825769
C         5.02398310009107    5.37629788625556    6.04112318746133
C         5.36944879419098    4.80164469076423    7.26278839672707
H         4.60764921131176    4.48719477258579    7.95584911677036
C         6.70489388942455    4.64708922084604    7.58539574291358
H         6.99450449635140    4.21279736734453    8.52900758367774
C         7.66092593501707    5.06578680870866    6.67176436711229
H         8.71383999959058    4.96658379303055    6.87833830902273
C         7.24077105943792    5.62679148306768    5.47979806886296
H         7.97129881553437    5.96469233087859    4.75720769709084
C         7.49970152133438    8.24844986363260    3.05627555012388
H         7.12011423803384    8.92145654020126    3.81225573382606
C         8.65620410469631    8.56029317894919    2.36433228258940
H         9.17871340182328    9.47613423023466    2.58605395003131
C         9.11220164886569    7.68810086623991    1.38746481024738
H        10.00374461427428    7.90508230738681    0.82104595558470
C         8.39230764075515    6.53148867549409    1.14991212556192
H         8.72120577123447    5.83723751651166    0.39511499410701
C         7.23581529880837    6.27858208504151    1.88392580106287
C         6.39919488133188    5.09556279272511    1.70134892604308
C         6.65847003293784    4.08897036940529    0.77313586446664
H         7.51969002379218    4.14539636351844    0.12918502829763
C         5.79123020271350    3.01661821101312    0.67650804834438
H         5.96807877948599    2.23111552813045   -0.04084722792767
C         4.68944400634227    2.97642425493171    1.51822302409181
H         3.98515688387808    2.16178058168406    1.47974881226395
C         4.49896791203545    4.01241316660503    2.41404355593269
H         3.64254717621710    4.00188653815792    3.07465814369186
C         5.00437333361896    8.19454502267928    4.59264495929454
C         4.41353968604420    7.52088097758867    2.17635104653964

