106
CSD_code = KOBTOL | q = 0 | S = 0 | Stoichiometry = C42H59N3NiO | MND = 4
Ni        3.74184700288836    7.33916692198686    3.73552848341874
O         4.62976869006307    5.68038960015331    3.34691328108501
N         2.12214131156901    6.75265713629096    2.83881410890329
N         6.22975005284587    8.74760730615922    3.43434818332257
N         6.07992917246297    8.01443782161960    5.44610905244175
C         4.26197445257997    4.66098553888392    2.67350604384578
C         5.12695051661615    3.52232177454227    2.51645698282139
C         4.70684728029262    2.47103329962565    1.74645037263028
H         5.36295478290279    1.62552233312529    1.62463102098415
C         3.45608336225493    2.41346516522395    1.09991307322622
C         2.61087711173840    3.47332118056978    1.27677304403365
H         1.62791943628633    3.48745443385182    0.83000305801948
C         2.97980001490335    4.59232347408368    2.04924423242922
C         2.02499614431760    5.62855326977601    2.19556446392747
H         1.07087330222645    5.43451921256464    1.69246948834881
C         0.94827724252758    7.55584470334581    2.78268258666693
C        -0.05898369181970    7.37425743654413    3.73743178127515
C        -1.20675108838055    8.14714247457886    3.64532050388292
H        -1.99692243393594    8.02101229634099    4.36865619415450
C        -1.36121718300222    9.07072300422233    2.63001414736806
H        -2.26365663936303    9.66167954311985    2.57019872483158
C        -0.36684347940040    9.23202269590390    1.68462086001028
H        -0.50644423470129    9.94622188913831    0.88831683333888
C         0.79696963339788    8.48088802855530    1.74166574609831
C         6.46000275273878    3.49551520288518    3.25543944944162
C         7.28637062019601    2.23861923372808    2.96530936469020
H         7.52545815890048    2.16019835682913    1.90667142332590
H         6.76433890628071    1.33865339915598    3.28294669782153
H         8.22340278464968    2.29181852893340    3.51743808756672
C         6.16161811083439    3.53393587232890    4.76072571161427
H         7.08877908287076    3.53416475912482    5.33233303794390
H         5.57774879122695    2.66208470220045    5.05049314633364
H         5.59250021371883    4.42632632277690    5.00336199304842
C         7.30771511098172    4.71356622515682    2.86439841184872
H         8.26224414960953    4.69394715727234    3.38852684183147
H         6.78650864581999    5.62925934132215    3.12530399812039
H         7.50199663597933    4.70732788537354    1.79291545299600
C         3.11108079901853    1.18623600652375    0.27075462162300
C         4.13685468075864    1.03537387883941   -0.86138076971650
H         4.12761585979566    1.91968968506516   -1.49556037615994
H         3.89772806980756    0.16792555438906   -1.47375413888212
H         5.14273430014001    0.90822312686206   -0.47052821614055
C         3.14330899347386   -0.05831562765472    1.16925448446159
H         4.13189764193907   -0.21764177737622    1.59114845643823
H         2.87146662445209   -0.94347869729571    0.59720396257551
H         2.43729302127987    0.05360116753901    1.98976853761986
C         1.71860090544980    1.28027020475376   -0.35932183054463
H         0.94865153107251    1.35527726064955    0.40529220385087
H         1.52291221007891    0.38514493577661   -0.94688549407486
H         1.64721199581555    2.14009867313097   -1.02169672799714
C         0.09455727834030    6.33357192504827    4.82387759133558
H         1.16729507342854    6.15291931060653    4.96570874071902
C        -0.49591955692126    6.78787720611134    6.15927022417680
H        -0.19393839077501    7.80733062359303    6.38206997904697
H        -0.14761920848534    6.13619963231692    6.95855067494014
H        -1.58246168177523    6.74134119243931    6.14281870025255
C        -0.56087278147809    5.01639399866110    4.39498234261201
H        -1.60718332039317    5.18034234941910    4.14300091182573
H        -0.50874011944558    4.29181588770256    5.20545690164114
H        -0.05996454118899    4.59206547646368    3.52853551081697
C         1.87544925516019    8.62731114358331    0.69121799594641
H         2.82536410436972    8.32262296115421    1.15255048300867
C         2.02359566718686   10.06168375786775    0.18156066237498
H         1.21240358098483   10.31949098605727   -0.49542285915222
H         2.95837545993283   10.16423736569492   -0.36742153148558
H         2.02267394656826   10.77012107985928    1.00555134049892
C         1.60170709656515    7.69390469024723   -0.49272648367890
H         1.65184244141004    6.65138874946966   -0.18995460970271
H         2.34063091346193    7.85546717437589   -1.27563783833956
H         0.61267200349618    7.88750337100010   -0.90406351733557
C         5.40561570618563    8.10245626580136    4.28481014230560
C         7.40395597609717    9.06374253685159    4.05951758810302
H         8.20614013207869    9.57545935158468    3.57020200540715
C         7.30732181520315    8.60617995617376    5.32864800114238
H         8.01029277808646    8.65530130344860    6.13346959803008
C         5.91190041161305    9.04294256058002    2.05187762909910
H         4.86599780216776    8.72295624509481    1.92373120096803
C         6.03196730994991   10.54089638402799    1.78474890504965
H         5.47613115405548   11.10393399542856    2.53082948385350
H         5.62964089000328   10.77387778678465    0.80267890651351
H         7.07191223985067   10.85886266289509    1.81105110067587
C         6.79368905626291    8.22463519546785    1.11269062081922
H         7.84512770100176    8.46366463690389    1.25836377389882
H         6.52961455979511    8.43747885144154    0.08029579112558
H         6.64637031466406    7.16376464016599    1.29594900054680
C         5.56103860559429    7.40187239891236    6.65221973357910
H         4.66019372047614    6.85831377927340    6.33638651396982
C         5.18325109913015    8.48408153145673    7.66171652663722
H         6.06525678147112    9.04025483248214    7.97297969416824
H         4.73262235544843    8.03086478486121    8.54021619357101
H         4.46941504345303    9.17554097457166    7.22001847723213
C         6.57068884198313    6.41805753947071    7.23658063315381
H         6.94061900887939    5.75225741733455    6.46199572879063
H         6.09468346355264    5.81925898729133    8.00813513020622
H         7.41335194485367    6.94060266871711    7.68401863508720
C         2.93900998520487    8.88076024706504    4.44117453097329
C         2.79306173837557   10.11211009766515    3.80280170120966
H         3.23194667573156   10.27617926711491    2.82899556764594
C         2.08097562525833   11.15019969177859    4.38051282497640
H         1.97490976773934   12.08700402429253    3.84953384067447
C         1.51217692877881   10.99834579382462    5.63108796595731
H         0.95977556261627   11.80884111525816    6.08480227929449
C         1.66473264684587    9.79604418194637    6.29652019327260
H         1.23902004232489    9.66782517014900    7.28354270390628
C         2.36609791410842    8.75495646474144    5.71010597501357
H         2.45324582547639    7.82521585346877    6.26237558564364

