36
CSD_code = KOBTAX | q = 0 | S = 0 | Stoichiometry = C13H18BrN3Pd | MND = 4
Pd        1.37477054331653    0.13696146360642   12.61653937619256
Br        2.77829217405287    0.27128996842948   14.59396401394774
C        -1.32986364444127   -0.11852454362125    8.80848675732894
C        -1.65953150148751   -0.88263867385082    9.93383151075232
H        -2.53296022829661   -1.51922489247789    9.90888717556682
C        -0.86094461581846   -0.79777729489497   11.05973115600528
C         0.25759953292961    0.03036114218505   11.04229072779656
C         0.59224433237995    0.78481952764177    9.92150415687349
C        -0.20894553869035    0.71960287497058    8.79620615000847
H         0.01639579141101    1.29574325922592    7.90965360933794
C         1.87261678653519    1.57152070678191   10.05376088576638
H         1.80739040412073    2.56174368673232    9.58045912343969
H         2.67146978589949    1.01290326792728    9.55089499498602
N         2.23881376024506    1.71523834297948   11.48717774726232
C         1.55662683857884    2.88153228813928   12.06114306860639
H         0.47679967937369    2.79971844771016   11.89687559325211
H         1.75393799796372    2.92956396613065   13.13786584421054
H         1.91600760201008    3.81015049154304   11.59712628932074
C         3.68534341647553    1.87813159225578   11.62597944344383
H         3.93863122471983    2.04613276410067   12.67367443646254
H         4.04363501295568    2.72986828461143   11.03409539996718
H         4.19274312327931    0.96990092196787   11.29287745354018
C        -1.11132299166865   -1.48741723552438   12.37785217366986
H        -1.47048960710608   -2.51862490217082   12.24998317789401
H        -1.88679816392911   -0.92836519833203   12.91550575064460
N         0.12450285874058   -1.47690098196115   13.20387876257388
C        -0.21626930807173   -1.53125694088761   14.62488455888424
H        -0.83727741517642   -2.40817478579527   14.84714078855871
H         0.69573217796813   -1.58608795176689   15.22083562264052
H        -0.75723626620640   -0.62610398810399   14.91006230854436
C         0.96570941443255   -2.62885847583732   12.85691017648826
H         1.16593552217421   -2.63278757958096   11.78007770558918
H         0.46807647356113   -3.57009458768798   13.12752081963480
H         1.91567843652107   -2.56695710350343   13.39950097739918
C        -2.14707699149514   -0.19437547765820    7.65964463647707
N        -2.81153661725695   -0.25521238328311    6.72657762693338

