58
CSD_code = KOBVAY | q = 0 | S = 0 | Stoichiometry = C16H38IrP3 | MND = 6
Ir        6.15275705283049   12.52790514533739    8.45570882713249
P         5.75460869853667   10.24563636767278    9.03720682205779
P         8.53929403975834   12.67241552450166    8.61250086882118
P         5.81729544290099   13.31992193460569   10.67356085933484
C         6.38932988292324   11.91776391586035    6.43759140850428
C         6.47737608481512   13.13254186450958    5.55958392303413
C         6.07671433499955   14.28866298810699    6.07720899472305
C         5.50965051822670   14.31062875225919    7.44756429566768
C         4.39940469650218   13.42806104567769    7.70790016769805
C         6.97714618795853   12.96004329330914    4.15617816052077
C         5.50094427953336   15.69466950237779    8.06582470659660
C         4.15079754131354    9.85395215603105    9.86435914503547
C         6.89544784679189    9.23288112807508   10.09160325310263
C         5.59915258953058    9.02608714138481    7.66590673135848
C         9.62601113644238   11.76356890901576    7.43135536629815
C         9.16451862958181   14.36655628933712    8.25705044961477
C         9.52916546176894   12.32483587501667   10.14103922641135
C         4.10295825564394   13.73772944152724   11.21836357189564
C         6.67205105172660   14.83364644459680   11.30878770683591
C         6.24871546939534   12.23328145538894   12.10966610649952
H         7.27795302650679   11.29399589670543    6.28029169972185
H         5.55028740331652   11.31343955593623    6.06290182382745
H         6.11951718919421   15.22228220618549    5.52802387685568
H         3.65218077877515   13.77632614337937    8.41693728162469
H         3.94283287404590   12.93292059643705    6.85587197461547
H         6.97826754410693   13.90752826249969    3.62036120985415
H         6.34532002017503   12.25472583393032    3.61444282299098
H         7.99178114782524   12.55737329883028    4.15448574668661
H         4.97571688396116   16.38368262309768    7.39897940974571
H         6.51057792118347   16.08000015189624    8.20689945277349
H         4.98065535986980   15.69808078298480    9.02111638615010
H         4.02854899208364    8.78104054608707   10.00904119837100
H         3.35264800714341   10.22992300782518    9.22708767152377
H         4.08490801632374   10.35835587132426   10.82502934668603
H         6.50031090305236    8.23007114827797   10.24928648681217
H         7.05344068460452    9.71244422283457   11.05333495363427
H         7.85425677539167    9.16528296088465    9.57974943826175
H         5.41305012272095    8.02629724614028    8.05731697355734
H         6.51362402226637    9.02226499042044    7.07829498546071
H         4.77525804782476    9.32284016819574    7.02211671634625
H        10.67611195296020   11.96439181696773    7.64177836565041
H         9.39352708783001   12.08959857639583    6.42095343039579
H         9.44031409524533   10.69376952346426    7.50740981463662
H        10.25377818197804   14.39989939681897    8.24732501138834
H         8.78427672737925   15.05821336140229    9.00497692990869
H         8.77622713065213   14.66313429701751    7.28476174061056
H        10.58128138077001   12.56170994114329    9.98631701016341
H         9.43263343098970   11.27089704472379   10.39606008138397
H         9.15164792668654   12.91722129145209   10.97099361518897
H         4.07125412748392   13.94464757628443   12.28779479145970
H         3.44542838196172   12.90156770981728   10.98867516242723
H         3.74739799428055   14.60983937272757   10.67495152521327
H         6.34072586944280   15.06673755513652   12.32061877426162
H         6.46671161463077   15.68047235572591   10.66111580114607
H         7.74643378154699   14.66182212722035   11.31538490148479
H         6.09277970095899   12.75713788021187   13.05254252242376
H         7.29031613197127   11.92962105883854   12.03850519501955
H         5.62657956167988   11.34195442618784   12.09090528059376

