100
CSD_code = KOBWEF | q = 0 | S = 0 | Stoichiometry = C37H57ClIrOPSi2 | MND = 4
Ir        1.95461911982983    4.96025075289438    3.02830149609771
Cl       -0.12412692313058    4.49238827340837    2.26596697701419
P         4.18123810136513    4.38276496279970    3.39593775371097
Si        1.92159912499780    7.10071107558923    1.98704918952133
Si        1.05371881423400    5.44222762254789    5.17341131510065
O         2.27538374213905    7.89699599442212    4.72388896710972
C         0.20749876771243    7.99090534392928    1.92065856020567
H         0.25046643949637    8.84459549948104    1.24899502737250
H        -0.08684688087006    8.34903807542384    2.89932057753025
H        -0.56567130417479    7.31962296402174    1.56662758131693
C         2.41281430789196    6.88061182702431    0.12215392510735
H         2.12642482445554    7.76664281365849   -0.43455055272687
H         1.89074393508334    6.04029593452704   -0.32026974553241
H         3.47787118890145    6.73134510028304   -0.01616143970465
C         3.09567094519636    8.71425347040228    4.00300991811198
C         3.06277399752394    8.51790750382007    2.62742291194995
C         3.83794678024491    9.35862911618966    1.84595288787089
H         3.82919361125342    9.24654562082638    0.77329078023499
C         4.63546978457257   10.32816584799482    2.43109166811473
H         5.23229535124377   10.98246863713181    1.81225979312397
C         4.69398090243701   10.45684368026889    3.80944698342161
H         5.34346369747844   11.20450121784070    4.23664190463462
C         3.92323051322241    9.64220828055152    4.62917083297694
C         3.88306067457009    9.72626968221627    6.14686677601787
C         2.69006647948465   10.62196526950086    6.53637049290439
H         2.60072037627823   10.67780441679922    7.61943105090805
H         1.76401770143527   10.21777724435939    6.13384093253109
H         2.83029279867699   11.62581382767167    6.14030208825477
C         5.16605969645205   10.32302533483933    6.72542931978611
H         5.31310426151026   11.33496953180845    6.35788901646899
H         6.02920858877426    9.71999197282090    6.45251728849514
H         5.10143829968967   10.38044663561001    7.80858158231762
C         2.73786783558310    7.52038925628233    5.95039394476043
C         3.59914121153716    8.33126422346418    6.68276712634044
C         4.07450854291517    7.81895345859754    7.88288746613953
H         4.75354692183068    8.39368660565785    8.49251350081223
C         3.67748541154592    6.56681773609809    8.32270410393457
H         4.05787238782475    6.19201747042022    9.26233471988038
C         2.78944851724363    5.80297092906190    7.58153310944742
H         2.47108079083063    4.83900563021639    7.94871096182884
C         2.30923150104777    6.26739932888516    6.37097998471637
C         0.38778132946170    3.85010779662999    6.05238235970256
H        -0.26928496361209    4.13382040732655    6.86837273123734
H         1.16705941444737    3.22151895119260    6.46294880884871
H        -0.19509657840696    3.25332386581442    5.35998530658651
C        -0.47957448345087    6.61494249742887    5.25357012584239
H        -0.94396610104023    6.56163974936261    6.23457788170890
H        -1.21993028551401    6.33076141009318    4.51533979858764
H        -0.20123396681873    7.64471004769602    5.07100018247300
C         5.73593073306812    5.41256545559436    3.48218150104196
H         6.59368281415263    4.73037506391925    3.45836837289348
C         5.78012159579387    6.22901668305245    4.77147734139210
H         4.94979947839445    6.93433876473079    4.76718366650267
H         5.66770746335259    5.59354404294069    5.65068435703549
C         7.09916044471990    6.99156232829523    4.86130759598687
H         7.12624530002837    7.56658540034020    5.78899611359256
H         7.93037785693664    6.28120429388731    4.88771126177130
C         7.26069146638829    7.92215762703724    3.66437805790843
H         6.47462110021170    8.67786640163837    3.68945546173824
H         8.22495981825958    8.43257917446181    3.71539451845355
C         7.15588934367936    7.14065509253585    2.35907385112720
H         7.99292743377439    6.44044083250494    2.28510301461411
H         7.21867846973459    7.82845042295964    1.51371264397293
C         5.83878212720039    6.37015996992951    2.29728329951401
H         5.78098815043566    5.82879032100317    1.35172815974623
H         5.00366602207014    7.07034508615057    2.33313565514167
C         4.52244106125873    3.17991153656059    1.98561638995507
H         4.08956656140787    2.23170266322371    2.33058561132589
C         3.73205716531247    3.60157856337223    0.74469207504491
H         4.14207097650453    4.52813490444197    0.33967890932993
H         2.68450515074821    3.79088044859052    1.01055140790087
C         3.78462902893898    2.51569625304206   -0.32520068383673
H         3.22935960779732    2.83880299760349   -1.20835057736057
H         3.30914212564293    1.60582614697247    0.05146226239109
C         5.23160578917249    2.21061755969731   -0.70082973938337
H         5.26446672839085    1.41144522393187   -1.44403238460314
H         5.68549580939744    3.09943134641174   -1.14593209667073
C         6.02563226639364    1.80379183283230    0.53688993385522
H         7.06474960865744    1.60594562213417    0.26419646528476
H         5.60869355001919    0.88027632235290    0.94743911341157
C         5.97507676646385    2.90511543232152    1.59686296521085
H         6.56063241327237    2.59544563365854    2.46371804190199
H         6.43468175828032    3.80427076550430    1.18459780522160
C         4.37277154964646    3.28633971850042    4.91099640552616
H         4.09013081692514    3.95516353642199    5.73600516734657
C         3.35440530497379    2.14445037261819    4.88181504738303
H         2.36404162124156    2.52916009034544    4.62458143866199
H         3.63740691053385    1.40249324218296    4.13063215018480
C         3.31240073669541    1.44307390270860    6.23695879867118
H         3.01774677675843    2.15527883963602    7.01069189145290
H         2.57255027696565    0.63986667566793    6.21809211958016
C         4.68779054173401    0.87998556772640    6.58055140734962
H         4.96349729113605    0.11657982978577    5.84859480233478
H         4.66255155592952    0.40420309631111    7.56280917431469
C         5.72873281768166    1.99463647678932    6.56799562489618
H         6.71702453954343    1.58301392403039    6.78498532289290
H         5.49069167183454    2.72286298924197    7.34686041126151
C         5.75315408998234    2.69982144017614    5.21148712829266
H         6.02286034042282    1.97038575491712    4.44488410640494
H         6.51874196864670    3.47516143416875    5.23299065911099

