93
CSD_code = KOBWII | q = 1 | S = 0 | Stoichiometry = C29H58N2OP2Rh(1+) | MND = 4
Rh        1.54256498793266    2.75418348119387    7.31836437073469
C         2.92097167977634    1.54449025594541    7.29457743910207
O         3.74780316795498    0.75738091794601    7.39655425581370
P         2.09452344041056    3.57910236655962    9.35517793558816
C         3.86359859428740    4.12336039703784    9.72746933668335
C         4.45110272878940    4.52800404274943    8.37051708522605
H         5.48499570109519    4.84320303126413    8.49565528512894
H         3.90693443595192    5.35781367333268    7.92111738087831
H         4.43603812365020    3.68587806273789    7.67786043320563
C         4.66871911473258    2.94504881252935   10.27335922062726
H         5.73049325716084    3.18442683905715   10.25000752535255
H         4.51393704377999    2.05233751588317    9.66992967992861
H         4.40417640623455    2.72779079374246   11.30481102357029
C         3.95498970957990    5.30650687583260   10.69120012438795
H         3.50994896165492    6.20742061517505   10.27680157346110
H         5.00545520752750    5.51977072070179   10.88251811097376
H         3.48411608798037    5.09339443999711   11.64518462806902
C         1.24850399900812    2.74218511658766   10.81702206483222
C         1.75463116313745    1.29834977049240   10.86787194118014
H         2.78564478895384    1.23442877158972   11.20052267210185
H         1.67737357318953    0.83789448816981    9.88007474677241
H         1.14538277365935    0.71921102833689   11.55927967534923
C        -0.23868020533171    2.69697454309791   10.45478991210819
H        -0.38136116560532    2.21915241902233    9.48083438268867
H        -0.67956766435044    3.69053410576592   10.43020481072723
H        -0.77882478403580    2.10883753433756   11.19449886693906
C         1.43753323577786    3.43125848391743   12.16310840162541
H         2.46346149381256    3.34946981179050   12.51202968334611
H         0.80092021251060    2.94966676800889   12.90384703953287
H         1.15819948011593    4.48263563453981   12.12125859429326
C         1.24348154407193    5.21666213093591    9.14247144434326
H         0.95651184028439    5.65343312446345   10.10087412419442
H         1.96026724522667    5.89710412580774    8.67391177083535
C         0.04519932574103    5.04707125924793    8.26405036725085
C        -1.02775445284835    6.13038164835772    8.27521134400272
C        -1.27831525825821    6.58541423127937    6.82749445175195
H        -1.99777169107395    7.39984816115740    6.81990886590193
H        -1.67967970240218    5.78298363718258    6.21815727592051
H        -0.35350772580412    6.94618208050410    6.38001447232737
C        -2.32180341780022    5.57684496812363    8.89015555835794
H        -3.12852621136134    6.29129042552637    8.74891434290915
H        -2.19690918294819    5.41505756427714    9.95838619689589
H        -2.60197353005393    4.63524262155175    8.42829653426819
C        -0.60764589789207    7.37022593251818    9.07325728410724
H        -1.37499281246345    8.13270634433742    8.96391767081654
H         0.32804195010170    7.78563057242069    8.70720927497201
H        -0.51351683947712    7.16165516208368   10.13590297223098
N        -0.02456365102162    3.98022639544781    7.53664299714960
N        -1.18600424359335    3.53488126499646    7.05194187137792
C        -1.50643284319495    3.18889717677380    5.87178677802024
C        -2.93864935329801    2.69652319072059    5.70895432103064
C        -3.17236461369515    1.80233742285237    4.49033412648157
H        -2.97701894510079    2.32351554186988    3.55595979533287
H        -4.21759695030048    1.50294448637070    4.47651100505095
H        -2.57598688471988    0.89567556454947    4.53717904443404
C        -3.81057652356498    3.95523335532366    5.54128768539174
H        -3.76506975312790    4.58394397620066    6.42555496600487
H        -4.84507228160275    3.66049638451492    5.38754605854290
H        -3.49272398756878    4.53710377271930    4.67791405310757
C        -3.37654472518778    1.93471565552715    6.96502990341571
H        -3.27391649867346    2.55036065609613    7.85291075601658
H        -2.77435961911546    1.03925759859719    7.10066055262381
H        -4.41701882765920    1.63728052186580    6.87147219561512
C        -0.58475412051759    3.39036835175614    4.71053992347331
H        -0.37740821058036    4.45984857949430    4.61676934300999
H        -1.00080738049586    3.02816025999511    3.77516042492781
P         1.07120432074799    2.59444949852012    5.07561516851535
C         0.88965168877686    0.86055078439422    4.34540839388890
C         0.13584211841416    0.11682624540730    5.45535124845559
H        -0.78170492001537    0.63926151220100    5.72605161996427
H         0.75800966764993    0.04028644236640    6.35192016254421
H        -0.12414989749892   -0.88982558806549    5.13410403615269
C         0.12483735226659    0.77387804506209    3.02499087394342
H         0.20123889093623   -0.24446405288192    2.64673638543385
H         0.54358914237742    1.43687124476815    2.27280770460443
H        -0.93064862226877    0.99495258568834    3.13977317689878
C         2.25584810007863    0.20242823747977    4.15209093500455
H         2.92373164579106    0.40751407530844    4.98443727929620
H         2.72428124439203    0.53368515370973    3.22896112157253
H         2.12795046057052   -0.87688921791183    4.08584535799510
C         2.25592593559405    3.71012555430868    4.10599699365923
C         2.20294634168896    5.06353857578736    4.82880728141162
H         2.28595881522129    4.90795885561836    5.91310347298610
H         1.29066804429300    5.61653068487092    4.61462685826430
H         3.03775163615529    5.68536961554471    4.51215535207459
C         3.68218869647346    3.17836382719145    4.25242041402803
H         3.90313058478552    2.96477607983635    5.29893616708348
H         4.38983587178099    3.92843981884282    3.90370839066483
H         3.84460874849008    2.27933644197892    3.66887574923840
C         1.90746587112839    3.87569091061588    2.63108137959580
H         2.07758576624549    2.95259251389683    2.08328021967829
H         2.54956099832033    4.63859840080705    2.19341665388978
H         0.87487017829803    4.18643829193135    2.48665965076285

