91
CSD_code = KOBYIK | q = 0 | S = 0 | Stoichiometry = C24H56N2NiP4Se4 | MND = 4
Ni        7.31490256922556    8.62160160975707    3.47404530312760
Se        6.36726296637685    6.56254182180795    3.45689934258078
Se        9.54223027887153    8.35647998620203    4.67266776348406
Se        5.86716728178901    9.31080124099521    5.53738005729062
Se        8.00299991045676   10.58660489192879    2.49555797985375
P         8.04124060415833    5.29163066920109    2.90830848942185
P         9.85891884485546    6.23327238334392    4.99945194642608
P         4.76932751022519   10.93461110562935    4.60492442351565
P         7.07137453143974   12.31386092433423    3.43125920107602
N         9.30268615925238    5.17206358758773    3.90572537528081
N         5.56443691553682   12.21258826567976    4.00477239628373
C         9.64843621850433    4.80230261798727    0.67832961033661
H         9.20602876480955    3.83343213073744    0.45571532088650
H        10.42837087297555    4.65998386487295    1.42485650827050
H        10.10664509729732    5.18693890238072   -0.23194013788869
C         8.60719268877682    5.78478256187566    1.19552948075678
C         9.15195497133457    7.20194165894258    1.24775543567573
H         8.39622845043218    7.89520097690749    1.66113836021349
H         9.40810048661164    7.56400911984066    0.25348003763021
H        10.04161275102547    7.25101992212090    1.87717999156679
C         6.85241533450846    3.11801327401564    4.10156617095907
H         7.61628567244559    3.21712627374584    4.86979627490421
H         6.53277204116061    2.07803898997589    4.06228592980603
H         5.99589205207647    3.73395249926007    4.37636556601815
C         7.40114159371660    3.55974192690514    2.75322464570566
C         6.34002192858153    3.45378884093272    1.66867425153313
H         6.74990351993549    3.64783427061029    0.67962903414339
H         5.54023876129198    4.16948373074476    1.86309693362786
H         5.90785841567292    2.45418646553839    1.66612965792882
C         7.73328457273785    6.04542896417191    6.76440222659505
H         7.48158690184294    7.06982988741961    6.47620036573369
H         7.35877626551521    5.88162978328354    7.77274919147067
H         7.21726855784165    5.36247633248339    6.09038632245307
C         9.23561277241756    5.81905224741836    6.70704847433988
C         9.60898315221513    4.39149491725862    7.08134922764453
C        12.27691075403099    6.30863842657183    3.68701346241483
H        11.79076897511486    5.75779175963557    2.88456258951973
H        13.34309907989929    6.09049485155551    3.65832458551086
H        12.13690092309229    7.37671772377519    3.52032994643650
C        11.68627796239480    5.91530880200611    5.03280613153180
C        12.34686914508186    6.68795127388410    6.16370635854402
H        12.03895789121655    6.31931294244983    7.13938647342669
H        12.08058370715109    7.74290653492378    6.08883248882179
H        13.43004023052441    6.60079309129563    6.09347498907861
C         4.53267749243135    9.69402159180137    2.13639478496468
C         3.67148910005787   10.20126051028340    3.28026131619410
C         2.66638907581261   11.23491181267432    2.79026119722223
C         2.64915069615540   10.62011392376332    6.38386850793253
C         3.63023369059203   11.66262532629598    5.87197715033683
C         4.46932685573048   12.22558748223843    7.00892982584218
C         8.34762796520656   11.91839581447592    5.85279808129370
C         8.24436392577248   12.94316293007042    4.73489616232570
C         7.77694039407773   14.29563571303511    5.25470529859893
C         6.07107955909466   13.19699655034567    1.01449010941605
C         6.97717647836739   13.65103782833935    2.14915225696578
C         8.35934496644260   14.01880258595487    1.63212471896704
H         8.97635267591941   14.46277243377770    2.40981444408135
H         8.27436120342113   14.73389724374754    0.81504101611709
H         8.86264083761546   13.12773619053877    1.25622554693208
H         7.71146419270809    5.76861818498130    0.56178791460041
H         8.27806116162766    2.95129746827523    2.50354133831055
H         9.72417941578185    6.53725785272594    7.37535273258817
H         9.30354906875698    3.70589648060637    6.29246207222545
H         9.10417355831332    4.10352250604057    8.00225019675505
H        10.68115006530933    4.28426805407143    7.23143941565928
H        11.79706824422838    4.83465154360994    5.17535018310203
H         5.33710127527015    9.03878524123915    2.51715495956358
H         4.99381865238710   10.52673185038655    1.60487818156318
H         3.94299347758568    9.10921246096269    1.43254034463463
H         3.16463687082212    9.35039915836539    3.75075625106978
H         2.15802769289253   10.86753104740954    1.89952614271875
H         3.17971937080730   12.16175466188168    2.53708419655112
H         1.91500095006524   11.45383503181469    3.54536013319515
H         3.19883758817114    9.75896228703952    6.76348746695295
H         2.05464917711881   11.03446189391118    7.19661020074400
H         1.97045586991436   10.28356686984685    5.60354415569036
H         3.10907833191742   12.48212846477373    5.36487592268450
H         3.83476051768257   12.70684059034377    7.75109413984317
H         5.02222984648500   11.41886158944071    7.49112881401021
H         5.17685010286264   12.95952765275248    6.62941233429785
H         7.38312158268117   11.78776652172082    6.34222600032881
H         8.66753176486639   10.94857764427626    5.46408718187308
H         9.07528840854826   12.23620411105432    6.59675192525625
H         9.21928563292356   13.02991238447935    4.24182578281555
H         6.72552914079278   14.24403047386330    5.53344402520438
H         7.89690205653583   15.07782069019254    4.50793652562028
H         8.35321638971555   14.57391089302640    6.13574894433298
H         6.50430977479409   12.32814808999048    0.51771965832260
H         5.08812142307018   12.93318798125864    1.39952782088164
H         5.95247019897622   13.99054512536425    0.27847643952727
H         6.51109519525883   14.50116520496395    2.66029999792856

