89
CSD_code = KOCBUC | q = 0 | S = 0 | Stoichiometry = C31H51N2O2ScSi2 | MND = 5
Sc       11.91691349392374    5.65995462271859    7.59819042027976
Si       15.38741314077559    4.39687230862904    7.68916520797724
Si        9.52688884775233    4.93790183871515    4.85923307973718
O        10.80227162445080    3.39307762015453    8.49702595027627
O        14.13107675022997    9.53648755987744    7.51680839628384
N        11.77375534813875    6.56958217174218    9.59197682898857
N        12.83927594015959    7.74250451036544    7.13157452977379
C        13.25398862947019    8.50166644415274    9.44506346004638
C        12.41587492203853    7.59738317943331   10.17136662288728
C        10.87977804295847    5.84983012220743   10.42655036996737
C        13.38072450446080    8.52319174955765    8.01729203871318
C        11.33002617572042    4.74461375728477   11.16460077755577
C         9.54129091880601    6.25921060768633   10.52528687547686
C        13.66185223997696    4.29917499979436    6.92461753698108
H        13.36751514856870    3.23869700812606    6.95673877872600
H        13.78851590752288    4.49647888519376    5.84679365903439
C        13.13892384970001    8.29169646348641    5.80077421108897
C        13.97056714530058    9.49230838313502   10.14467607820172
H        14.61712440922894   10.14073972165574    9.57478950359421
C         9.39475777697798    3.17346379414926    8.60570644370048
H         8.97161025410831    3.05135542812670    7.60161195348333
H         8.96202063129827    4.05634684955044    9.07691637259411
C         9.92222065241467    5.86588888504125    6.45295839493906
H         9.15892912976076    5.55479637375920    7.18824663804881
H         9.69897313347571    6.93175784425275    6.26768355303983
C        12.29872410206741    7.84408272114398   11.57012146535736
H        11.63686342333745    7.21110279977178   12.14325794112528
C         8.66922316235888    5.53903667674607   11.32938360217205
H         7.63717855838910    5.85246270155002   11.40355140671709
C         9.08371783186288    7.48663484232209    9.79443081791296
H         9.51321208257072    7.51471732915645    8.78882076368850
H         7.99823796114021    7.51761477558131    9.73047859541109
H         9.42527652429272    8.37905074158845   10.32133198722100
C        13.86465486758492    9.65946274897053   11.49873589406500
H        14.42946794431460   10.42556699781718   12.00649506376095
C        12.77583625763909    4.35489162574625   11.09284400228390
H        13.10784924249890    4.33611101585118   10.04733808169745
H        13.38911302815025    5.08731795784421   11.62057274092497
H        12.93920790716639    3.37973122679518   11.54731198522254
C        11.39892003111548    2.10178774081889    8.57102998684312
H        12.45241843506640    2.22586361094032    8.81696420561647
H        11.30399908734250    1.59530756559009    7.60041458061870
C        12.99607609989693    8.82791396994840   12.21034061523920
H        12.87711681650604    8.96001485030189   13.27684508435747
C        10.43667633003637    4.05768736771036   11.97111480125759
H        10.78738540845652    3.22064116941761   12.55968701060905
C        13.73123208068646    7.23814021691366    4.86962693196803
H        13.99530997478993    7.69824730759086    3.91931103710909
H        14.62246657550754    6.79698095391959    5.31133956757802
H        12.99715678740849    6.45197202155433    4.69308824900769
C         9.10997207300354    4.44452543361767   12.05199802215997
H         8.42475988791944    3.90424863012477   12.68895223065966
C        11.86071200022824    8.87385489327980    5.18830187242702
H        12.09040075305794    9.35318859853368    4.23905558397995
H        11.13963823212194    8.07900959617870    5.01798919936454
H        11.42381928111213    9.61032819530351    5.86036877964836
C        15.62406509877068    6.00310246294589    8.71478570824713
H        16.51210784266219    5.95584784552862    9.33842709314848
H        15.73356435085786    6.86942300641205    8.06793869607818
H        14.77250351302740    6.19198693131422    9.36716666159606
C        15.72902223213620    2.91346695569586    8.86150717231624
H        16.74279339673200    2.94492237340236    9.24829606880936
H        15.05792005400191    2.90472137036336    9.71464592213825
H        15.60980498023676    1.96847407187074    8.33995149524227
C        10.60719160182612    1.35655981566683    9.64323926523377
H        10.98059080699847    1.62510755647046   10.62950849168123
H        10.66876349934959    0.27776035506124    9.52242385618212
C        14.15718209380029    9.41264078906102    6.11151901701688
H        15.17425455752430    9.14979600326350    5.79797723851646
H        13.88352971192633   10.37356587005652    5.66934925236317
C         9.18793952722142    1.89915576553453    9.44507630373785
H         8.56194179838115    1.18638649959102    8.91063827276780
H         8.71453715975155    2.12988703203881   10.39656542795775
C        16.81314170912848    4.37742051829896    6.40023947382185
H        17.78563822506301    4.47245392218310    6.87419507127953
H        16.81665476686074    3.45423064369551    5.82851668392655
H        16.71632885091752    5.19577883081518    5.69183366648580
C        10.39225867378274    3.22409549131829    4.81563583803601
H        10.48108855724828    2.84827430955960    3.80088698189728
H        11.39372838353805    3.28583099048500    5.23804940755526
H         9.83828824613625    2.48259294863997    5.38370147201514
C         7.65342041822133    4.59264522279352    4.59058325185871
H         7.47492986659933    3.99867530876100    3.69890884607592
H         7.22723339278754    4.05269417602547    5.43205393431033
H         7.09347500119968    5.51694585289658    4.48347803611332
C        10.10924390482112    5.88853447521995    3.29748988528512
H         9.80139176326890    5.37184212448716    2.39361200335456
H         9.68613345641281    6.88752778438757    3.25710192572994
H        11.19002119355547    5.98487528500496    3.26304779188474

