77
CSD_code = KOCBOU | q = 0 | S = 0 | Stoichiometry = C34H34Cl2N4OsP2 | MND = 6
Os       -0.33910586715070    7.58441881225706    6.25668266625447
Cl        1.92755234489936    8.18784767884613    6.81699928057812
P        -0.43175144223256    8.61085571326892    4.18740629423823
C        -2.24482980817542   10.36479458618778    5.44915643246773
H        -2.86835294370080   11.25939428472938    5.37050817102205
H        -2.88296764517210    9.47262379257251    5.47116446368685
Cl       -2.71441325135892    7.21380812827316    6.10202860897732
P         0.35282615783665    5.49931296039042    5.49900483540813
C        -1.26437811080619   10.28187303198190    4.27877395029314
H        -0.47840757832127   11.03501944274471    4.40127209203434
H        -1.79081030888214   10.47499219273019    3.34159328324357
C         1.39575351611402    5.27182149660876    8.12991108280575
H         1.90795802631184    4.64761661008582    8.86692258329586
H         2.05737091879431    6.09138218325502    7.82415550685504
C         0.98757870606282    4.44168240073676    6.91388364393323
H         0.18650496014718    3.75035676442386    7.19612694160071
H         1.84969265902718    3.86617591633733    6.57038014734377
N        -0.77974197258774    9.43807432983379    7.15326014086555
C        -1.52618989794630   11.47468122186690    7.55243738734425
H        -2.08169023953365   12.36970640060182    7.35613668970730
N        -1.54078012663780   10.43462444800719    6.70167027788013
C        -0.71718226819615   11.13082734781780    8.61026336780346
H        -0.47691989697295   11.71746822967772    9.47217416797854
C        -0.27210420031743    9.84396337257952    8.31156751316339
H         0.39917691210118    9.23042508570602    8.88099141227139
C         0.97770576763702    9.08632439076852    3.11770317111846
C         2.28376640949547    8.83618451792230    3.51354689126379
H         2.47172548108151    8.37935346307459    4.47240395734930
C         3.34136349385495    9.17855010453968    2.68740759190105
H         4.35329616409036    8.97430099975313    3.00418047536832
C         3.10170880215374    9.77765131334135    1.46425413601559
H         3.92535507609720   10.04437539043849    0.81787033619861
C         1.79861643906379   10.03682768886529    1.06589746052498
H         1.60825864989147   10.50539808791275    0.11076234499289
C         0.74143206238290    9.69175934916801    1.88436589276308
H        -0.27332950691915    9.87656259084399    1.55919960013619
C        -1.44984996258077    7.76918572056770    2.92154573076985
C        -2.83749600562850    7.85662105287598    2.89168285359709
H        -3.36239828583521    8.47950823816834    3.59789524853459
C        -3.56124210884003    7.12111265602308    1.96945914611337
H        -4.63908156960506    7.19455637687030    1.95777043360218
C        -2.91360656761489    6.28828918904558    1.07331324367075
H        -3.48289639870350    5.71019510816906    0.36008038745935
C        -1.53158626554973    6.20022309888675    1.09424839869298
H        -1.01852649858890    5.55623089522851    0.39418624045249
C        -0.80570431197362    6.93531993569222    2.01174436706174
H         0.27359263323418    6.87816357550280    2.02398635851480
N        -0.53012712885143    6.75055049125402    8.17247961001565
C        -0.23888554241429    5.52981357669719    9.98579577034826
H         0.24909507866544    4.81364583658613   10.61598414984646
N         0.23989324958796    5.84115815199675    8.76940523627461
C        -1.37334729374164    6.28147100110136   10.18683149086077
H        -2.01110770778546    6.29148308628395   11.04587329703892
C        -1.51428511439504    7.03022795200244    9.01926155548573
H        -2.29057493366973    7.72768654158356    8.77006079977053
C         1.80132139877521    5.40825123541203    4.37633662450747
C         3.05908214347354    5.78771003078413    4.83730215265320
H         3.18096052276776    6.12487579096819    5.85470830510359
C         4.15066738130999    5.77259278911825    3.98835776659363
H         5.11980699713845    6.07156912168325    4.36030899105742
C         4.00295871296801    5.38454817247858    2.66763761494691
H         4.85437791273053    5.37983574841489    2.00282159887012
C         2.75708964304953    4.99934339802585    2.20352099665635
H         2.63421214805066    4.68889649732349    1.17558039401872
C         1.66334273379417    5.00840138523347    3.05058822971804
H         0.69882318824918    4.69058261313747    2.68250419332118
C        -0.70642625908388    4.23832080740992    4.69353376828216
C        -1.97068902367050    4.56847666871403    4.22588255061282
H        -2.34969037909625    5.56739828661929    4.36944121982978
C        -2.75405517792934    3.61775004167628    3.59275245321764
H        -3.73561328516780    3.89056170257454    3.23477006690453
C        -2.28166183563340    2.32947154745930    3.42159585288153
H        -2.89116835170150    1.58606643032408    2.92849433904134
C        -1.01846429787258    1.99210279629899    3.88441452361199
H        -0.64342544337049    0.98740495859424    3.74961675752900
C        -0.23352132763484    2.93837939805020    4.51325411244057
H         0.75841985100802    2.67098376698450    4.84961037140242

