134
CSD_code = KOCCUA | q = 0 | S = 0 | Stoichiometry = C46H67N2O18V | MND = 5
V        -1.43737828864153    0.26982581580461   -3.66546112959175
O        -3.96302770434646   -3.80894877305751   -0.34627080963198
O        -4.26845627588812   -1.87929973525357   -1.48742920573349
O        -3.44438140963315   -3.69695042059268   -4.53320061855467
O        -2.72385045649982   -0.69407911306116   -3.92776441131299
O        -4.48785851567270   -1.43579343509777   -6.84850869764531
O        -4.71313023210670   -3.67954834155419   -6.48925479350234
C        -3.52139634561248   -4.08397414458711   -1.65282632064798
C        -3.48534816112259   -2.70311809655409   -2.32875532683402
C        -4.06561801515261   -2.69473375462916   -3.74326951402977
C        -3.77326941990343   -1.34491602273930   -4.46402686877894
C        -3.49087159386233   -1.78006613594181   -5.93256886975191
C        -3.50825441813307   -3.32080959095340   -5.87277489194110
C        -4.78872625970232   -2.66667754450201   -0.41786620500166
C        -4.68507454762755   -1.88553845720490    0.88812266294054
C        -6.24657628846383   -3.05344541444641   -0.71270824796078
C        -5.36144603537395   -2.54055009673077   -7.04011462515371
C        -6.70700885257219   -2.30775838140220   -6.34584494476012
C        -5.55635735523053   -2.74947000082567   -8.54343453965959
O         3.88658211906470    3.53490791004765   -5.27801828961476
O         2.66394633802962    1.89045562613909   -4.27826111004397
O        -0.04458068911020    3.84473814718563   -5.74821388507270
O        -0.34337498989930    1.18954432029904   -4.43139890567330
O        -0.80337102661293    1.51366319949570   -7.92803594652172
O        -0.82569075597167    3.78386081708178   -7.92761307320048
C         2.79483280504608    4.15922761323378   -4.64534941887308
C         1.81135588728961    3.00123580451788   -4.45712407910963
C         0.93605794959702    2.81595909785064   -5.69769678199856
C         0.10910927633613    1.50670441282097   -5.66218049905563
C        -1.06606693402635    1.87482861335300   -6.60130114319919
C        -1.06760574408605    3.42423427182881   -6.59581635388175
C         3.95606069044036    2.20600545376457   -4.79770146338332
C         4.31003889625703    1.27860763925944   -5.96108682036448
C         4.97905530130802    2.07581886175533   -3.66311242695384
C        -0.98481974164109    2.64815494050946   -8.76255360325237
C        -2.39213609207870    2.63603804542492   -9.37183888987632
C         0.09324473467176    2.65628214705092   -9.84139859278335
O         1.36617586983009    3.40325535397567    0.14245167796134
O         0.10393509916064    2.57215413909648   -1.57074026635552
O         1.27464925312777   -0.49854015407495    0.03155396048394
O        -0.75749172384372   -0.49906417900623   -2.06938963679059
O        -1.47142976928696   -1.01328274131437    1.41012155646523
O         0.60695583372667   -1.88001467569565    1.79636221505930
C         2.10878931794996    2.37701121370435   -0.47677421328332
C         1.02107023407303    1.56744947440196   -1.18347198100222
C         0.37838328287254    0.57677651093210   -0.21730427298521
C        -0.89932636643402   -0.09750373597790   -0.77798661946405
C        -0.94217821777204   -1.33321275341044    0.14676364095006
C         0.53971305428480   -1.62727988945570    0.42549164406539
C         0.23146989646355    3.66904970738580   -0.66856164007805
C         0.44057866715702    4.95562763924966   -1.47838619503347
C        -1.00287235781680    3.80233130251801    0.22746070040134
C        -0.61011756048360   -1.50125699635630    2.42758016669479
C        -0.36207327790953   -0.39192069122033    3.45085121826375
C        -1.22706628605747   -2.73907377053625    3.08898042865303
N        -2.47315740265186    1.65407694129834   -2.97195542412757
C        -3.59223109651957    1.37102079049321   -2.26227846559583
C        -4.48619289983674    2.32631481073788   -1.83286306805361
C        -4.25809234652921    3.67099596594000   -2.10951480220347
C        -3.10047107395491    3.97328619402353   -2.81960650260204
C        -2.24910771544616    2.96488423348013   -3.21399524583718
N         0.22008950504413   -1.56631201284840   -4.36275573112455
C         1.38725823382973   -1.19660956175890   -3.84132871348760
C         2.13000852799756   -1.99465689194746   -2.98495817192140
C         1.64178137144100   -3.24597430198775   -2.64707572036970
C         0.43313499901062   -3.64403177802606   -3.19360280990780
C        -0.23553248560819   -2.77105116770881   -4.03874759428100
H        -4.21100324165181   -4.75771579900848   -2.17798559130529
H        -2.53970761920003   -4.55191933056228   -1.59194527436485
H        -2.46687152309452   -2.29255291703940   -2.36612183504914
H        -5.14940412772584   -2.87865260049378   -3.69910186663301
H        -4.66991809827340   -0.69586785855048   -4.44467253510188
H        -2.53413993090496   -1.35243620179977   -6.25773452096080
H        -2.67934686553991   -3.82770193277673   -6.38257395585464
H        -4.99603306365151   -2.52361534720128    1.70956676746555
H        -3.65890802609415   -1.56660313809952    1.04665658542228
H        -5.32552590225843   -1.01090624600547    0.83661260215296
H        -6.64399313100206   -3.62640349138744    0.12003036637614
H        -6.83610571984686   -2.15199206890383   -0.85084560793700
H        -6.30560237555250   -3.65650963023823   -1.61516660369855
H        -7.19402129040876   -1.44394625051149   -6.78786603437076
H        -7.33019196591560   -3.18758780347375   -6.47333652511535
H        -6.56042628434153   -2.12615374379698   -5.28470104613707
H        -6.19614721665674   -3.60997717413537   -8.70947907649140
H        -6.00695929041762   -1.86156694559231   -8.97503087468903
H        -4.59167425085249   -2.92432428168663   -9.01139263682101
H         2.41159852070801    4.94326574830140   -5.29601367233256
H         3.09650489237778    4.58707593579662   -3.67924540672620
H         1.16492401507549    3.08976732164795   -3.58084505075649
H         1.55333212646008    2.84320285634768   -6.60810926284274
H         0.67243778039603    0.66263069619039   -6.09686716792565
H        -2.00373109418343    1.42850286859721   -6.23036688841134
H        -1.99474002414462    3.89155413020064   -6.23867666066349
H         4.37748902505386    0.25590664410071   -5.60323905216622
H         3.54100638254394    1.33839166175848   -6.72626211301464
H         5.25993187716215    1.58564412207737   -6.38767463401203
H         5.97736423622132    2.26055045891561   -4.04813956817262
H         4.76069997147367    2.79870994902863   -2.88145117841908
H         4.92272096027339    1.07719703784985   -3.24145811544441
H        -2.54229524470419    3.53942849701841   -9.95496354528478
H        -2.50342930349515    1.76296284475265  -10.00737567891741
H        -3.13606954887028    2.59438707769994   -8.58000081014049
H         0.01541120545878    1.75018403189532  -10.43333608175583
H        -0.03692185371354    3.52772093537910  -10.47453130261624
H         1.07322268733216    2.69741655639776   -9.37491404984492
H         2.82358445746145    2.79174285284242   -1.20037421908403
H         2.63454123867254    1.81066018864002    0.28973238603212
H         1.35154912378794    1.04001813555867   -2.08004711173908
H         0.13833913136541    1.08667608876728    0.72864728477469
H        -1.78451501460101    0.53498516401243   -0.59979813632256
H        -1.47147687789047   -2.17646124605222   -0.30788570340363
H         0.95585612295420   -2.49220189400882   -0.10165069813766
H         0.42115675677884    5.81140147602260   -0.81011218981398
H        -0.34478227367062    5.04659039722741   -2.22107632450717
H         1.40221414121773    4.92530157364734   -1.98307166191782
H        -1.85732388387360    4.09063129444805   -0.37697490458149
H        -0.81137764580860    4.55506130391729    0.98661162579695
H        -1.21929674219542    2.85453864324413    0.71120523405308
H         0.23589642069897   -0.78174405158585    4.26855821418786
H         0.17343711843194    0.42828640275678    2.98062988676724
H        -1.31497864402538   -0.03095101222794    3.82576711904183
H        -0.50449751342214   -3.18226557156919    3.76701137693802
H        -2.12088115259781   -2.45235304649614    3.63435795166267
H        -1.49448834985825   -3.46425168014400    2.32474968584404
H        -3.75769105444614    0.32694514217546   -2.02467315318052
H        -5.35634504308011    2.01903303661463   -1.27242974971712
H        -4.93669674878759    4.44052084129164   -1.77888461548140
H        -2.85835499410895    4.99655434929389   -3.06749455663400
H        -1.34748705755817    3.20055624164619   -3.76055115736093
H         1.75691870182430   -0.22013056057304   -4.12889456399586
H         3.06399292110681   -1.63575382869709   -2.58137574617840
H         2.19255335394190   -3.89583690591633   -1.98142633710492
H         0.00993854406308   -4.61255036224071   -2.97237078181085
H        -1.17572213931827   -3.06863383960965   -4.48488274557528

