67
CSD_code = KOCDUC | q = 0 | S = 0 | Stoichiometry = C37H26Cl2OTi | MND = 8
Ti        2.69254405491770    3.22229372373729    2.37490640707351
Cl        3.79268699122519    2.12536392527348    0.84696751700087
Cl        1.82007540374443    1.47232569545034    3.35203051315725
O         3.88893096606359    3.57822143599151    3.47184159116114
C         2.44654387637154    5.27891457825700    1.37590753270806
C         1.74405631649377    5.35546899770765    2.62377521095689
C         0.72219455778605    4.36780273988051    2.62384897479003
H        -0.03111926758274    4.22892825898386    3.38885308661083
C         0.71649271624896    3.75278278143173    1.33838499174637
C         1.73405662256082    4.35239249476429    0.53485078818709
C         3.68611703545446    6.00226350749775    1.22164768936190
C         4.60381474420894    5.67884442302976    0.20991839094170
H         4.40441191269503    4.82999180370834   -0.42908225004218
C         5.77028050306791    6.39057155238640    0.05768997131357
H         6.46258911173858    6.13323229985182   -0.72974820633660
C         6.06386861091188    7.42687613945950    0.93798662239413
H         6.97287195169199    7.99761685669190    0.81716762794114
C         5.22085958690839    7.69552829706390    1.99216504694277
H         5.51204550079965    8.45845089901598    2.69536265088562
C         4.02371595826458    6.99240431790767    2.17863842784642
C         3.17323374728343    7.22235095954397    3.33878200451941
C         3.42759519691419    8.24309742133600    4.26214704896801
H         4.24706598295123    8.92468185525227    4.10338048669258
C         2.64746170557113    8.41677995616083    5.38275813056189
H         2.87414649537748    9.21306529842524    6.07580864192027
C         1.56484865386313    7.57838882438673    5.61995434044277
H         0.94730358353976    7.72333936411834    6.49388010334042
C         1.27915207673967    6.57243204704708    4.72772151753800
H         0.42698152097875    5.93055584963234    4.89578163019504
C         2.07019996812091    6.37201760583710    3.58986465104216
C        -0.05610452889027    2.64162912088752    0.84081436229987
C        -0.95940241956655    1.95146391768534    1.65940767604556
H        -1.14161495698734    2.30438013492089    2.66410780578091
C        -1.58222925789094    0.81058247805396    1.21129681329123
H        -2.26652990714626    0.27734898613780    1.85374505840629
C        -1.30285289895119    0.32971257064251   -0.06339634482480
H        -1.76183537224095   -0.58621279505773   -0.40506235585194
C        -0.44492817583642    1.01547231492203   -0.89340321091515
H        -0.24313793205874    0.61105426442974   -1.87246995804549
C         0.17893690244777    2.19989156571060   -0.48326538387709
C         0.99054217891111    3.00862373754462   -1.38163623986664
C         0.99367668749708    2.78485649210650   -2.76368964526223
H         0.44626425532480    1.95148505318373   -3.17384888051241
C         1.65107466847831    3.62650768104528   -3.63181698791804
H         1.63728745812036    3.42421663153708   -4.69247843551945
C         2.29047278225916    4.76151016436075   -3.14766119455173
H         2.75162444448452    5.45888337675693   -3.83101851339892
C         2.32105255102102    5.00156087670713   -1.79405892875782
H         2.77249893877394    5.90882486623217   -1.42285108825496
C         1.73020453973657    4.11142810588706   -0.88746926324261
C         4.55641007245615    4.33898230378545    4.33217300690890
C         5.82321307085010    4.83751434920258    3.98373569944978
C         6.43770550922860    5.74040434425192    4.83664198135006
H         7.40275948161249    6.14194574209015    4.56491692505690
C         5.83401818398580    6.12327672369677    6.02121704802805
H         6.31892508366202    6.83843420776840    6.66803313647489
C         4.62417990551680    5.56373026822499    6.39470756682266
H         4.17503891844784    5.82929736900308    7.34015430143559
C         3.97366406987901    4.65881313434944    5.57232590379517
C         6.49745991901557    4.34289483025280    2.73981535634574
H         7.03819732089911    5.14564412056660    2.24476659181056
H         5.76937265706618    3.91467098466985    2.04537084046907
H         7.21308816218199    3.56213601560593    3.00320759705302
C         2.70869025650578    3.97593692751535    5.99966916832095
H         2.11844757849369    4.62458552128285    6.64201094346103
H         2.95977647105433    3.07457052917629    6.56273782396232
H         2.11362729674671    3.66785917504212    5.13297968435972

