46
CSD_code = KOCGUE | q = 0 | S = 0 | Stoichiometry = C20H18ClMnN2O4 | MND = 5
Mn        1.00985408048374    3.62582546635993    9.88186146049152
Cl        2.38095853588201    3.87212569998974    8.19813329843061
O         0.41512009087433    5.13582225361308   10.53847128509121
O        -0.35096649456688    3.18961278055957    8.81564316373881
O        -1.90707943690258    8.43849101475157   10.48439370614025
O        -4.03005059728555    3.47013753650655    7.22208801234787
N         2.52843916029637    3.89044365752125   11.17955506751573
N         1.51097408092966    1.83330431367212   10.08508170602938
C         0.89180799893958    6.22114416837554   11.06608227515624
C         0.15160256007090    7.42778541522290   11.08593201466938
C         0.70014996184806    8.57031114623224   11.65940959465761
C         1.96271967541382    8.57193039329856   12.24023461478834
C         2.68243113142635    7.38759228303287   12.24604131705306
C         2.18088493961268    6.21676756606124   11.67290944425478
C         2.91163335420741    4.98663458559854   11.74196669489137
C         3.28358458183987    2.68520680761383   11.48669332717791
C         2.89260764917289    1.60644030417323   10.47499371120832
C         0.78833968177817    0.78970628526539    9.77291044225053
C        -0.50376820836267    0.85186310922401    9.19319468682132
C        -1.25066716454144   -0.32369908444879    8.99914507038797
C        -2.50526289621324   -0.31409963621863    8.43121941140683
C        -3.03583340647925    0.91247587346181    8.02252691866965
C        -2.33582148491433    2.09748191964419    8.15480906040139
C        -1.03552687924469    2.10851914782149    8.74536203708529
C        -1.18435491405838    7.47359391689178   10.48447441247321
C         2.52775344509205    9.82854398701521   12.82572259856981
C        -3.29714707439325   -1.57113443842623    8.24436729495154
C        -2.92632519793909    3.35662080889256    7.69619162850316
H         0.10516059634711    9.47218955792460   11.63466427904973
H         3.66465855943899    7.35992614787149   12.69692755087535
H         3.81365511859228    4.98865821077489   12.35714756313289
H         3.01185001117885    2.36057329027864   12.49923754720002
H         4.36082002628320    2.87895946405955   11.45635701431134
H         3.04140595243595    0.60159949745576   10.88527445303577
H         3.49937443125873    1.72781394449733    9.56729015071972
H         1.20478584885570   -0.20317238260781    9.94223613487940
H        -0.81851013656409   -1.25892240799052    9.32835157091784
H        -4.02137794968181    0.96057192770630    7.58134187273514
H        -1.49448192186233    6.51959765958585   10.01823441687558
H         1.76170496748201   10.37685061396646   13.36881495049275
H         3.35248126363387    9.60956034973854   13.49871651976282
H         2.89838936524397   10.47413727077558   12.02979304762144
H        -4.28099529769494   -1.47082842712085    8.69905765391231
H        -2.78957512559650   -2.42269466339368    8.68954072409386
H        -3.44147614950204   -1.76864795822050    7.18303250143458
H        -2.25772673281718    4.22908062298958    7.81626779378659

