73
CSD_code = KOCGAL | q = 0 | S = 0 | Stoichiometry = C39H30Cl2OTi | MND = 8
Ti        1.62128749968632    2.07850411427904   10.82234863945327
Cl        0.97094781157836    0.11854153877770   11.51045942557420
Cl       -0.27534991026390    2.72681773837768    9.98359422924529
O         2.43107620512699    1.65668321923619    9.40904481984514
C         2.64273108067734    2.31300948559744   12.88044142549240
H         2.83621235723789    1.54880160108500   13.62260363927633
C         3.57771270832342    2.81132063124620   11.93426063023220
C         2.96510738357099    3.89285129148792   11.22200694890404
C         1.69694553067651    4.16342785778338   11.84476439816186
C         1.48858658718072    3.14414454051588   12.82784337009116
C         4.95949447752996    2.47626042050405   11.70733133002142
C         5.62258330168526    1.53054689768906   12.49848344167492
H         5.06503390185963    0.98548353298235   13.24581653909017
C         6.96842701846608    1.29781664774033   12.34152866120141
H         7.46974390796302    0.56641381387748   12.95770228325536
C         7.68621699709899    2.02738381849405   11.40081596952814
H         8.75053227092640    1.87255700809100   11.29866327306995
C         7.04697544356840    2.94840806109621   10.60131273384029
H         7.63274737988149    3.50869690835976    9.88998835563997
C         5.67194513063124    3.18124851261142   10.70801265322841
C         4.95512188256974    4.05110210407408    9.78559472842101
C         5.54157451694815    4.50654513484737    8.59819838788973
H         6.57433782132197    4.28015677886749    8.38811309661737
C         4.81773716564252    5.20205994266072    7.65638223218989
H         5.29815893636648    5.53800271103360    6.74944368292967
C         3.45731122015147    5.42458247101893    7.84475699111950
H         2.87500114378916    5.90754212436269    7.07438674645525
C         2.85217543767494    5.00606189874323    9.00694867496542
H         1.78292781995859    5.12228705448775    9.13481831214730
C         3.59420782507436    4.37044084156555   10.01347844780512
C         0.79717770162609    5.28925216457339   11.79704187924452
C         1.16500549390858    6.50674200054994   11.20962651128630
H         2.15376872909454    6.61105611942866   10.78915633927775
C         0.30359021732246    7.57878456521391   11.20055977933084
H         0.60329682115715    8.50993737668352   10.74328741436438
C        -0.94689194614933    7.46215002923964   11.79554338418727
H        -1.63117797848588    8.29749298376338   11.78335508092003
C        -1.30006571673627    6.29518164122001   12.43473565590245
H        -2.25248015150337    6.25532841627609   12.93836230332662
C        -0.44506030381897    5.18742424388379   12.47064370082486
C        -0.78016162955651    3.99026339553702   13.22961786144976
C        -2.05780145071849    3.76975067828548   13.75747201527175
H        -2.85890447241795    4.45615224018364   13.53480771054838
C        -2.33339736764681    2.67220184038752   14.54191373974759
H        -3.33167443104977    2.52543341450145   14.92683325457208
C        -1.33532852038126    1.75000579069974   14.83734670939361
H        -1.55430911375761    0.89420872025511   15.45789100809292
C        -0.07569957739416    1.91971814846906   14.31219181277384
H         0.69247633559214    1.18455078394265   14.50611144917761
C         0.21456164350512    3.01772032813774   13.49185436149345
C         3.59298430181769    1.14550958356793    9.02219546561789
C         4.22990777186504    0.19040250174235    9.81999090376506
H         3.72121313134310   -0.16230601227624   10.71407805665925
C         5.47308872314363   -0.29408294469636    9.46312081541758
H         5.93369681017729   -1.02355329814257   10.10812464709703
C         6.12176317233827    0.14370400854574    8.31274665955759
C         5.45748968542461    1.06980980154606    7.51065656374156
H         5.91376397136634    1.42009885162071    6.59760680882967
C         4.21609933930658    1.56703971189445    7.84621934814693
H         3.71367353739852    2.29184756992209    7.22109734332342
C         7.49318017784631   -0.36226906854084    7.89518433633250
C         8.44022298227010    0.83063043123993    7.70542285414603
H         8.51890381217675    1.39171671812607    8.63312260815790
H         8.08764063182407    1.50055908227528    6.92676877261580
H         9.43113118420363    0.47898121612445    7.42604154633949
C         8.11510114729045   -1.29657245974378    8.93619048830940
H         8.21491752675775   -0.79463507501665    9.89582117980733
H         9.10691493177585   -1.59840611891964    8.60559976074072
H         7.51811003311749   -2.19621984003233    9.06310326532261
C         7.35372179987060   -1.13078231190641    6.57337501829626
H         8.32128239865591   -1.51605714741104    6.25906023251553
H         6.96730119612017   -0.49077057414284    5.78508375567030
H         6.67115659844754   -1.96869820849653    6.69639353103157

