52
CSD_code = KOCMOF | q = 0 | S = 0 | Stoichiometry = C21H24Cl3N3Pt | MND = 6
Pt       14.66585950996084    4.83638751886182    8.30051141799792
Cl       16.34746580247985    6.41485329045256    9.05630796987431
Cl       15.13412137807670    3.40339075731854   10.13079835556571
Cl       14.14698052509628    6.22315923907460    6.44762601175389
N        15.86206377545018    3.69659246572687    6.89336083537404
N        12.98422280528942    5.52443223939147    9.48807195702396
N         4.79055927896075   -4.16783223912805    4.82417078246018
C        13.30530354549280    3.55925210005933    7.68982800491538
C        13.57995412253769    2.81300748077589    6.56248822935930
C        12.61271174467935    1.92145836215633    6.13153861365921
H        12.78240458209972    1.31422413526032    5.25385195392627
C        11.40399426231272    1.79594595395413    6.83183075276720
C        11.16481409572171    2.58374479554439    7.96615513134075
H        10.22499588552645    2.50370387949223    8.49007356278956
C        12.12870980060013    3.47475592060355    8.40596718145901
C        14.89574743220525    3.13923891497277    5.90127447908398
H        14.70283603326450    3.91019923538295    5.14824469151150
H        15.34069850780048    2.26916616419257    5.40547250650415
C        16.54676999062873    2.58594682631783    7.56060200153014
H        17.15461144872084    2.03364187956155    6.83556323207164
H        15.82070265434279    1.90730617846757    8.00700843111948
H        17.19972548927306    2.96838184651023    8.34471631520785
C        16.86857556011867    4.53129015339723    6.23403078846728
H        17.52926730589378    4.95760109129573    6.98990768677656
H        16.38979483367229    5.35083789013563    5.70051490416506
H        17.45958708621401    3.93700787070172    5.53011544000915
C        12.08654766498928    4.34136506810653    9.64012545602870
H        12.46033027838432    3.74029416985056   10.47547023099523
H        11.07187323762516    4.67977055150190    9.87840618126245
C        13.41227750096202    6.03048005545176   10.79393726418142
H        14.09976043358970    6.86411036432266   10.64539122265603
H        13.93619694436103    5.25307171250803   11.34772624644548
H        12.55010391672708    6.37139279986625   11.37567958087958
C        12.24978834232027    6.58841529025887    8.79798774784441
H        11.41675302408002    6.93081460300950    9.42171041548992
H        11.85783952787920    6.22359923538978    7.84916759585364
H        12.91136799553209    7.43240335527886    8.60452346302996
C        10.42657517700473    0.84411863462855    6.33460958081894
H        10.62047260457410    0.48531563407487    5.33266995457023
C         9.37306558120545    0.36346277861146    7.01061555682012
H         9.21513428220913    0.66326649206611    8.03800083684982
C         8.40832472960320   -0.59424742282920    6.50605104314658
C         8.27112321734765   -0.89141246458701    5.14545474481384
H         8.88781462895758   -0.38461281636632    4.41967407578407
C         7.34160351269212   -1.80932940861778    4.70974936318319
H         7.23926465525228   -2.02927556754145    3.65711708523699
C         6.51784521021116   -2.46079086524543    5.63049809310690
C         6.63616213886590   -2.17079979340878    6.99114829522824
H         5.99535116639411   -2.67276182915751    7.70108861526098
C         7.56525592332172   -1.24634041580792    7.41393890798806
H         7.65375729016107   -1.02544296834615    8.46802431434888
C         5.56483355939625   -3.40306114357119    5.18570289155782

