84
CSD_code = KOCREB | q = 0 | S = 0 | Stoichiometry = C43H35N3PtS2 | MND = 4
C         0.29439064466211    1.21029976132334    6.64153761069233
C         0.11124332952838   -0.06945158376983    7.13571288969913
C         0.36794723926265   -0.15046103586979    4.94635280164198
C         0.34384949253524   -0.50049620869122    3.54913912667871
C         0.07589070865464   -1.77003226375771    3.03508063878183
H        -0.10276989937875   -2.59989655349474    3.69893445981961
C         0.03184708679526   -1.94779626975469    1.66630028363835
H        -0.17314454755699   -2.92270721472889    1.25131707821029
C         0.25142539610152   -0.85119139645254    0.83990042882546
H         0.22714607902405   -0.94888562273527   -0.23314833157670
C         0.49521644091475    0.37989746999803    1.41691171385230
H         0.66538150588382    1.26124229127011    0.81255042036256
C         1.83474965666301    1.87464389191763    9.31288586830691
H         1.33109807220312    1.42967524071248   10.17265184425762
H         2.66979189415805    2.46531469976437    9.68499458877935
H         2.22002071546167    1.07256544989898    8.68747576210497
C         0.90603572822142    2.73601959030437    8.53343847428516
C         0.26574416744561    2.47498462278000    7.35506894840379
C        -0.50034985088366    3.58110112606054    6.88492793446789
H        -1.04880064128318    3.55861154152971    5.95856452592183
C        -0.45508197879000    4.65756852755241    7.70289951470562
C        -1.12770632923721    5.97282394517112    7.54966129844155
H        -1.57538347390438    6.04081002121107    6.56163827114856
H        -0.40803437852421    6.78149115618037    7.66651968194116
H        -1.90672219860215    6.10150808013283    8.30230160994060
C        -2.03753741802537    1.06587532236214    9.09390865492434
H        -1.67118956831603    2.00143289332361    9.51823839781425
H        -2.99254521919924    0.83552873277549    9.56286319595783
H        -2.18790288168748    1.21887308682171    8.02760445321491
C        -1.06591684786412   -0.03318721204464    9.32972235971839
C        -0.12097890180887   -0.54807019494038    8.48518495391091
C         0.60900766838247   -1.62586570481004    9.06853315531791
H         1.40117120226760   -2.14618242637272    8.55919775884587
C         0.22917160864025   -1.91609222397650   10.33517710691802
C         0.76260823031162   -2.96148237673602   11.24697168757489
H         1.59779769381030   -3.47322082862604   10.77459527460078
H        -0.00913818545463   -3.69373502622991   11.48479546337068
H         1.10223226614412   -2.51964556684926   12.18306011966464
C         0.08905733915239   -2.32619734067248    6.16029859030621
C        -1.05242566763641   -2.90780787719909    6.69731454629739
H        -1.88208073048467   -2.28384101559511    6.99366028785506
C        -1.11329820249452   -4.27910162267456    6.84899443005029
H        -2.00158967313224   -4.72777445003660    7.26804901032342
C        -0.04825053174672   -5.09057507892465    6.47246025020011
C         1.08638392911232   -4.49373492209563    5.93549547944701
H         1.92481867565417   -5.10710380517565    5.64014994036558
C         1.16385056690889   -3.12224135865660    5.78294591369772
H         2.05305113081977   -2.66324048933879    5.37522966894179
C        -0.13613141067026   -6.57614135132191    6.62984448344373
H        -0.74557528892850   -6.99978014089997    5.83119553396822
H        -0.60363487121716   -6.83549218661603    7.57723406928149
H         0.84904242828408   -7.03285388538902    6.58426679262124
C         1.56330001242099    3.24818518320228    2.09445752154083
C         1.81668356229555    3.75537709246384    1.02084992115452
C         2.09052670717301    4.35577637143548   -0.23144656596932
C         2.78237136249698    3.65329257249614   -1.22062458060749
H         3.12353299800937    2.64797342931706   -1.01453417788150
C         3.03394979054742    4.24040075750202   -2.44515405121650
H         3.57232467902053    3.69034798579911   -3.20486783606822
C         2.59827549125705    5.53014521522127   -2.70439227311721
H         2.79537562850494    5.98607649885822   -3.66410124501724
C         1.91047828035176    6.23384990059687   -1.72786428391037
H         1.57166280895087    7.24079179173278   -1.92849812625632
C         1.65696079338720    5.65614852504448   -0.49979071999231
H         1.12296700715223    6.19846899933968    0.26682490510750
C         1.64642987571323    3.82970660946048    4.72278729303450
C         2.03424709367437    4.75242985436496    5.41113373683501
C         2.40822636996404    5.81071273059933    6.27008058369737
C         1.89682964143731    7.09537848737572    6.07264751546711
H         1.24069181649243    7.27413268566964    5.23311953510017
C         2.22335201323369    8.11538732642298    6.94460234086942
H         1.82073407578166    9.10684507306529    6.78720880244109
C         3.06297078319909    7.87451728368711    8.02097328128074
H         3.31304776165405    8.67430878961704    8.70323993671874
C         3.58248037961953    6.60459718992788    8.21767439929643
H         4.23905232982787    6.41592135888650    9.05583796050200
C         3.26094226065043    5.57884246007525    7.35154613921087
H         3.66005059546208    4.58546711916151    7.50138524095834
S         0.55312032453935    4.34205215945124    9.08319725439274
S        -1.05765141390206   -0.86694801271826   10.85021026001364
Pt        1.03770599468768    2.28058509288831    3.70627441479364
N         0.45446570208738    1.13173944957027    5.29548175086358
N         0.17495872981274   -0.92161077220431    6.05487768510048
N         0.53945434421884    0.56551857492738    2.73375435968438

