96
CSD_code = KOCSEC | q = 0 | S = 0 | Stoichiometry = C48H42ClIrN2P2 | MND = 6
Ir        7.60164379144804    6.37844383798056   13.90406555965464
Cl        8.89194389388950    6.51425092327751   15.88374732899554
P         7.41202675971658    8.69700913731583   13.94102025272654
P         7.71870271548033    4.04441227060304   13.78378310424785
N         6.35548160341443    6.24632412098468   12.30489197712132
N         5.68198888895933    6.20080331616252   14.91998794979474
C         6.39853284150458    6.23494694468882   10.97556363557901
H         7.32280723771718    6.34316674157633   10.43938955347562
C         5.11448064931746    6.07978970834793   10.45004161558871
H         4.86171236885348    6.04087658091242    9.40783220549287
C         4.24863692024507    5.99029865211404   11.52590466479638
H         3.18307950259429    5.86254569607451   11.50501245014517
C         5.04133786623211    6.09953969621488   12.67719543096226
C         4.73222311277001    6.07324215791696   14.04491034685493
H         3.70125149409256    5.90057145863672   14.34692033578982
C         5.40510600035941    6.19039858364937   16.28663931097191
C         4.39236045778107    6.96586345784713   16.87249161843801
C         3.50562038519184    7.89246562717124   16.09227226413617
H         2.55194528463944    7.41559179807755   15.85883857100270
H         3.97163750161123    8.20038985801363   15.15866453441982
H         3.29661358530186    8.78534942971622   16.67934292073081
C         4.22178025366139    6.89722151996682   18.24921166086440
H         3.44753818902839    7.50144077310035   18.70196145873750
C         5.01007431837411    6.08864990080560   19.04546709420785
H         4.84854899188336    6.05711232698388   20.11286954387053
C         6.01295530933211    5.33154689895521   18.46427917975040
H         6.64813961869325    4.70128228826171   19.06845379395416
C         6.20836865147233    5.38955014723315   17.10123692834123
H         7.00324188040509    4.81392971950184   16.65033835694361
C         6.51757814003098    9.52102417758084   15.30409203163185
C         6.77438617974288    9.07852083755749   16.59831092046255
H         7.44520039487913    8.24618778392179   16.75567386025650
C         6.18108712432278    9.70403413814676   17.67961320613483
H         6.38209691463093    9.34661655772390   18.67853587458490
C         5.33228148326431   10.77934365528228   17.48018984893883
H         4.86580100949346   11.26819750737416   18.32338263255510
C         5.08571644867628   11.23354210579779   16.19459046128197
H         4.43060927330255   12.07831808467545   16.03475504683853
C         5.67585367841728   10.61250396778876   15.10877511038900
H         5.47352305384833   10.97902049474430   14.11198953508118
C         6.57680941265847    9.24908269390598   12.42095060975317
C         7.34128291135532    9.54640699122403   11.29690678463533
H         8.41961655399928    9.54561617163147   11.37505670154351
C         6.72808102896119    9.83508567039814   10.09208470361213
H         7.32927072084351   10.07084846253327    9.22603769857483
C         5.34690825834166    9.81176108155229    9.99112583159152
H         4.86837792640047   10.03202155110373    9.04839351266456
C         4.58016225256399    9.49188000130041   11.09877099878458
H         3.50336788332418    9.45555079043047   11.02072765583097
C         5.19102619141256    9.20549211738338   12.30514227091204
H         4.58600213408974    8.93914069490491   13.16081431559661
C         8.90736434848476    9.74888849740630   13.95112680460983
C        10.16523319237179    9.21535662215919   14.19504775400054
H        10.26766648039415    8.15526878189670   14.36917485818495
C        11.27461325272499   10.04376611263534   14.22568052120129
H        12.25061005899636    9.62337579396183   14.41760453352024
C        11.13525575176491   11.40425147276532   14.01415003323383
H        12.00136192596149   12.04941777269394   14.03811575821721
C         9.87974660371242   11.94119736525143   13.77389298176861
H         9.76688036823916   13.00328543626269   13.61030106778133
C         8.76940651944870   11.12014644541173   13.74623297961655
H         7.79192084731065   11.54248195465589   13.55877005749991
C         8.48296407121224    3.11448551384833   15.15602458645494
C         9.78036254831754    3.50648875240718   15.48002115809201
H        10.23301714248662    4.32455538297960   14.93747240439073
C        10.46852445874161    2.86662425475399   16.49226270917598
H        11.46877570494379    3.18368046094047   16.74601772693155
C         9.87182602207029    1.82438861172948   17.18380631802853
H        10.40469923606079    1.32716484862432   17.98104832198542
C         8.59270413589358    1.41548536717515   16.84795823442713
H         8.13014079794262    0.59365003933081   17.37579702788573
C         7.89642441395023    2.05403190918432   15.83565108643456
H         6.90296148123304    1.71532586263821   15.57810907435667
C         6.08464813027190    3.28485894331757   13.51235567008596
C         5.68454174518885    2.95570827538994   12.22013004424651
H         6.37419760884022    3.07800107980854   11.39731909879058
C         4.40569666241365    2.48886506919395   11.98138350403675
H         4.10716819353481    2.24010366227609   10.97375183588084
C         3.50700596266627    2.35137969913430   13.02612958547865
H         2.50759830945949    1.98731568833951   12.83810493505697
C         3.89025077800826    2.69480072503222   14.31164547011523
H         3.19010548241787    2.60339668868670   15.13008250077556
C         5.16650851154188    3.16997807631035   14.55367104741044
H         5.44247717991618    3.46336748336037   15.55694089445713
C         8.66440156505943    3.26321569764204   12.42470649890890
C         9.31741369225809    4.00970804243008   11.45518236250402
H         9.27249314607071    5.08724254818414   11.50313847498468
C        10.02050139621524    3.37551531003964   10.44431245938769
H        10.52588133668950    3.96310885104722    9.69195799342780
C        10.07733099542970    1.99367675237009   10.39757324303599
H        10.62606262523306    1.49938891282012    9.60944518957014
C         9.42967099215349    1.24250770253213   11.36656853371660
H         9.47382528074401    0.16358878105472   11.33422879860783
C         8.72768002926931    1.87194670380526   12.37571506061559
H         8.22181032472442    1.28493383114246   13.13049513270423
H         8.89435164175837    6.52986510823583   13.10514240892534

