101
CSD_code = KOCTAZ | q = 0 | S = 0 | Stoichiometry = C46H42MoN4O6P2 | MND = 6
C        10.41724818667831   14.12927178186675   14.60833821191623
C         9.24877089862941   11.82436743315481   15.44201690548510
C         7.07552287791370   12.30871449585022   13.74138887442411
C         8.34946755996139   14.68146464507130   12.93851607262599
C        10.28952814811442   10.43465703588262   12.35482855983497
C        11.35348557297332    9.91716174131403   11.62317181473947
H        12.00587384284158   10.58196407448946   11.07324593772723
C        11.58668234589581    8.55343386819615   11.61141142847602
H        12.41869107687147    8.15694186708154   11.04762088391147
C        10.75720041127303    7.69730818834142   12.31715470151005
H        10.94491037458196    6.63373795305923   12.30717006011104
C         9.68535968669866    8.20556209770279   13.03306852936210
H         9.03413131848450    7.53862188585297   13.57920497634685
C         9.45137469937212    9.56827566877107   13.04736911223397
H         8.61449621498842    9.97784810148116   13.60256701892713
C        11.35988688329788   13.02028242942069   11.87745966247141
C        12.51175759114236   12.72362162551843   12.60159573321227
H        12.48165506771188   11.93659562301380   13.34685755397940
C        13.67387577184502   13.43477737168268   12.37166457192644
H        14.56796705106576   13.20230744018085   12.93196241454254
C        13.68972956167985   14.45107265767589   11.42813246260055
H        14.60040657336443   15.00350820826866   11.24868995930331
C        12.53799443388540   14.76871086505890   10.72719213933801
H        12.54472184408728   15.56739191585567   10.00047179440569
C        11.37111911674748   14.06312771307010   10.95947211661339
H        10.46153106333275   14.31725769569060   10.43603243474241
C         9.29430837382922   11.70150804833376    9.67761894999493
H         9.07929825915440   10.62420012986809    9.66666328418334
H        10.37024314870909   11.84448182687599    9.54931620916340
C         8.54949711327351   12.37297789485309    8.51382646073498
H         8.79843687404547   11.85291799763184    7.58477994378804
H         7.46445415656739   12.29772653761815    8.69380409744581
C         8.28608018386666   14.67852647433870    8.86769051164494
H         7.30149316863718   14.50083918196934    9.32137952117061
C         8.73594152278144   16.05022004148135    8.84904699423908
C         7.93218257208373   17.05063810628792    9.40305037645070
H         6.97867373270613   16.77429401738647    9.82930168592556
C         8.34307492615065   18.36443494155376    9.41939274295498
H         7.71355630276780   19.12566466397645    9.85400320844165
C         9.57601581614028   18.70495342329027    8.87537383722965
H         9.90304390363383   19.73419948635402    8.88576638693339
C        10.38831351314001   17.73817500419556    8.32239280688909
H        11.34751934242837   17.98911224625521    7.89660661755644
C         9.98743922721977   16.40196205245881    8.29974612416680
C         6.50518459454912   15.63333377787420   15.77674416746215
C         5.68670753368440   15.55055638472963   14.65613183347384
H         5.85489698231517   14.75449801297388   13.93926213500898
C         4.67713376090727   16.47392328735652   14.45539816063492
H         4.04933175287146   16.40747019203743   13.57867000757444
C         4.47239508650480   17.48449784412148   15.38074710594601
H         3.68668159339698   18.20902297343397   15.22508093729990
C         5.27445664765443   17.56403740423069   16.50746441073841
H         5.11159025682456   18.34834625292916   17.23246322044756
C         6.28461897944227   16.64078902780388   16.71055463076180
H         6.91122988803569   16.71005748302466   17.58953932105540
C         8.92288499951140   15.04356382256188   17.14098247988721
C         9.45255304370703   16.29027079314640   16.81802055432852
H         9.05641402441278   16.83023457373261   15.96525689680751
C        10.47785222834277   16.82198181614553   17.57638983564209
H        10.88641705620674   17.79063371132995   17.32704633464329
C        10.98786819193479   16.10844093225223   18.65061451750572
H        11.78874383080773   16.52705605609506   19.24223252808791
C        10.48422044484290   14.85474966520878   18.95609301966896
H        10.88983423687366   14.29163653248835   19.78349540235278
C         9.46127496847912   14.31721618582025   18.19590574013682
H         9.07710644954890   13.33080888295297   18.40930590029967
C         6.10265239872232   13.63521172364511   18.13779009108636
H         5.12167369544470   14.01840978261182   17.82522931660111
H         6.64013989051272   14.43243150386782   18.65763470624143
C         5.89745439780088   12.45337420071396   19.09745991479036
H         5.20780151122734   12.75447423174649   19.89071675574572
H         5.46225502688483   11.60984782692207   18.53699843945533
C         7.84116599512162   11.14600714193484   19.26280511607367
H         7.48014783309853   10.49510992551806   18.45520556214066
C         9.15026223553805   10.83715149814346   19.78834570918807
C         9.87938872171728    9.77258095083054   19.25093899790813
H         9.44156286045194    9.19529630712962   18.44968689318118
C        11.13678894955074    9.46468147060237   19.71964647095675
H        11.68947361638775    8.64169602782599   19.29322381454740
C        11.69187358306196   10.22155169528268   20.74489478856144
H        12.67717044660611    9.98291594849361   21.11724691487032
C        10.99519740894277   11.27820056654100   21.29129900203539
H        11.41479335174183   11.87433642846725   22.08688148486013
C         9.72119041272854   11.60546604273579   20.82564281883939
H         7.91337481159036   12.23943600455891   11.12297251290922
H         6.47887834405175   12.46934736097403   16.46921844566344
Mo        8.74151511135161   13.21973554063043   14.17342266970737
N         8.90600399751073   12.33725417490133   10.92579386659969
N         8.98578091208286   13.72856916906159    8.39259833670894
N         6.91861394528195   13.20696589106517   17.01366216998748
N         7.14678648138889   12.11611877582815   19.70375006347600
O        11.39205590886496   14.66215684813994   14.86317782151193
O         9.57848458224084   11.03867306210923   16.20273465762296
O         6.09412985263313   11.76822220383804   13.48729719258254
O         8.16902064851838   15.55582132033002   12.22656724490404
O        10.80692449449924   15.49428584976234    7.75550403112059
H        10.36898674227681   14.61055930234670    7.83665609419533
O         9.08100175762312   12.64190583042372   21.37946517090595
H         8.20818268943049   12.73175837357294   20.92131917863105
P         9.81437132174188   12.20242272837569   12.33094709977990
P         7.72563920197411   14.29028222052965   16.01730381716583

