63
CSD_code = KOCXIM | q = 0 | S = 0 | Stoichiometry = C28H26Cl2N2O4Zn | MND = 4
Zn        4.17047458286578    1.45577502446005   10.55465109015044
Cl        2.52814646629122    1.77887315372072    9.11007876647512
Cl        5.73174212083429    2.94580435439784   11.03489112756948
O         3.62353919264330    1.10476715481762   12.48558693221674
O         4.80910624884531   -0.30611084848285    9.75662658225566
O         7.17547767527401    1.42859786900213    7.96792552246539
O         1.26014276935529    3.57763690149878   12.09528001786602
N         5.83093381141158   -0.73762896335580    7.38931204432225
H         5.76479280408571   -0.18765384132783    8.26563117671629
N         2.67577016157547    2.86239273929635   14.17613447157232
H         2.70287763076468    2.42821796866518   13.23543583325701
C         3.98633995348084   -1.25990600458203    9.53344134082913
C         4.48258920522277    0.77290211663089   13.37306545099137
C         4.44245269494730    1.34374370026813   14.69870318353325
C         4.07583129626635   -2.05382213300301    8.33071007602350
C         4.98388592829926   -1.73597326881817    7.31460570391279
H         4.97055918225774   -2.33667134059418    6.41159971407923
C         5.50453234851771   -0.17663224013084   13.11400010667722
H         5.56886967762931   -0.57364505216352   12.11195918214196
C         2.95984264988342   -1.59923424776219   10.45189569692696
H         2.86183065503399   -0.98433635462858   11.33415072055326
C         3.55181044667710    2.37402301535779   15.02071959012330
H         3.60661058396519    2.80351975305970   16.01518756855937
C         3.18392005589553   -3.13883897046786    8.14631019211308
H         3.27491588824467   -3.72293089645220    7.24118598131858
C         6.97248068468174   -0.92576104521816    5.22785880010526
H         6.43202464544444   -1.82398280137316    4.97454040831117
C         5.36890439226956    0.90098879472022   15.67446119381263
H         5.31277201426033    1.33594505468197   16.66257699441166
C         7.89799922450923   -0.41643313324012    4.33645985386589
H         8.06991861657719   -0.91741310460570    3.39691645486113
C         7.45941280938527    0.88397676918444    6.76970934401570
C         6.73986636303414   -0.29053361500954    6.44278241346387
C         2.11485331904186   -2.64665361110550   10.22809841188612
H         1.34197301215803   -2.87517402473595   10.94764920286642
C         1.60640887753210    4.58497126352169   15.55369968989948
H         2.17487946485211    4.29877292138590   16.42431906183410
C         2.22895134555966   -3.43772773143369    9.07088231001349
H         1.55234535785502   -4.26418863067599    8.91812542857604
C         1.78587259630363    3.91104322572790   14.35059182218262
C         0.12210687488764    5.33598183729565   13.33038055381961
H        -0.46302161859514    5.64180570220958   12.47848886357935
C         8.38479155451009    1.38072368589388    5.85854628812944
H         8.94264125341135    2.27446588918493    6.08594389936524
C         6.31426262569366   -0.03570765249609   15.38245573929183
H         7.01704387548430   -0.36327310440039   16.13279013962096
C         8.59907575461579    0.73404127716000    4.65351015703252
H         9.32165043444494    1.13519199931401    3.95958733873789
C         1.02894045247730    4.28812858363692   13.21535395473564
C         7.82394635501263    2.62406471130626    8.35276978486228
H         7.62511748204067    3.42735318122055    7.63863596718806
H         8.90262668587726    2.47210926692827    8.45098711965542
H         7.39455190530265    2.88437034515568    9.32083498585528
C         6.38458106690701   -0.56505572786031   14.08144628486098
H         7.15163761601582   -1.28964461343864   13.84894246547416
C        -0.03854233418242    5.99552160734832   14.53670876183358
H        -0.74750097646644    6.80622644856402   14.60543536512498
C         0.56860955886390    3.91725309527668   10.91019432360407
H         0.95506633108198    3.23962077985680   10.14822224762271
H         0.77355868120382    4.95017092506772   10.61712827585889
H        -0.50881087745676    3.77045931148956   11.02808821585544
C         0.69825995484008    5.62269131038811   15.64741903795253
H         0.56775058985738    6.13820121981863   16.58577076728206

