63
CSD_code = KOCXOS | q = 0 | S = 0 | Stoichiometry = C28H26I2N2O4Zn | MND = 4
C        -0.63831788291235   -0.95554671626229   13.77355148119396
C        -0.93401502785541   -2.18810755787258   10.40676797276866
C         0.20587651947211   -2.06036953731031   13.48712292318955
H         0.92574757315533   -1.94612916113461   12.68920288566365
C        -1.81529337866587   -2.81009102782771   11.32977427891047
H        -2.53292640305568   -2.18115745590412   11.83706681661548
C         0.11665310404208   -3.22779250127773   14.18777408684406
H         0.77266652121315   -4.05054964179563   13.94271960420979
C        -1.76241479720709   -4.15133472276230   11.57470595982834
H        -2.44553121902772   -4.59299976245749   12.28578743941557
C        -0.82314788215611   -3.38180645567364   15.22070879248871
H        -0.88573454786729   -4.31931827634077   15.75097018006455
C        -0.82468431927961   -4.96941964327316   10.92254479615138
H        -0.79087577967218   -6.02488865771643   11.14368197441804
C        -1.63750703522135   -2.33901217545111   15.55361220964820
H        -2.35191082994298   -2.43462991994408   16.35945379464108
C         0.02450455231062   -4.42401134375919   10.00442185279771
H         0.73783109272340   -5.04362831970331    9.47894095145095
C        -1.56367577184233   -1.10150905248711   14.87390700431093
C        -0.01088868078898   -3.04434742432457    9.69764458135029
C        -2.37035854725266   -0.02876945353390   15.28662985578995
H        -3.07552823000821   -0.18384138155294   16.09656310454781
C         0.83306129211226   -2.52831834536426    8.70089532075119
H         1.53634457219004   -3.19481781574413    8.21263540181406
C        -2.96201856683798    2.33342676301321   15.01056783856307
C         1.50316750815125   -0.58250515979596    7.36927917634526
C        -4.13211830596619    2.39843330941667   15.75696114171348
H        -4.55019689114735    1.49830407054202   16.17966361155747
C         2.66655242761250   -1.05995600304262    6.77825494361109
H         3.04670753178672   -2.03245820458132    7.04914989897732
C        -4.77554062039431    3.60823422058453   15.93347198940345
H        -5.68676381586243    3.65295804832726   16.50852508819962
C         3.35136813896929   -0.28049702555307    5.86608687244712
H         4.25664580411737   -0.65323741455610    5.41381842641315
C        -4.25684157595226    4.75494177263337   15.35689997775710
H        -4.76495898091827    5.69840684757882   15.48249603965936
C         2.88132917880318    0.98246159042744    5.54901502383654
H         3.42183531397430    1.59804414961410    4.84688455078077
C        -3.09133035536325    4.70974217061036   14.61081883615818
H        -2.71251204234488    5.61485477966955   14.16558661782349
C         1.72354609451192    1.47474816748899    6.12704665818882
H         1.38311916028645    2.46419479845981    5.86996756732925
C        -2.42360913828990    3.50615313569434   14.43181512198730
C         1.01421001915210    0.70213079771176    7.03618686308158
C        -0.71206050069746    4.45278200928564   13.07316208580485
H         0.18994460404995    4.08209100707829   12.58893690223924
H        -0.44240694197589    5.25154958508704   13.76951086223185
H        -1.40384668199944    4.83401803472579   12.31722865729067
C        -0.64464249957823    2.36601811410624    7.42564797453321
H        -0.89188197793570    2.52921178506736    6.37309949148782
H         0.06990554579389    3.12159931371794    7.76304190581329
H        -1.55431683626403    2.43228258187163    8.02022657446556
I        -2.98397385246436    1.96260426853023   10.99979144207656
I         1.55622528746481    1.72641916432417   10.65900934097482
N        -2.27558792372619    1.16071471641505   14.74927028905538
H        -1.54775400549116    1.22101666998337   14.01143221768298
N         0.77637737018050   -1.27771015239198    8.31948014090668
H         0.04948314310934   -0.72904876637282    8.81806117961111
O        -0.58096819086258    0.12328709299970   13.09792323417372
O        -0.95744126457691   -0.93031052727567   10.20367165665606
O        -1.26502454005738    3.34528333701970   13.75248018816744
O        -0.14180030299333    1.06366070273577    7.63838240062878
Zn       -0.73879620904005    0.83704659638813   11.19566394391930

