42
CSD_code = KOCYEG | q = 0 | S = 0 | Stoichiometry = C19H21CrN | MND = 11
Cr        3.48864891574655    1.49587851007487    2.27421863509458
N         2.41738613284436    0.56574236543964   -0.40221790070872
C         2.12747887025807    3.27257533683194    2.31587570657138
C         3.31802515284776    3.52328344757731    1.65020081173898
C         4.50783014784771    3.38452391125335    2.45895829291289
C         5.44255164349964    2.45344622271903    2.02856759937023
C         5.17086252434425    1.69944215244899    0.86141101755257
C         3.58514472389971   -0.57719242035752    3.03910134626072
C         4.48662438219181    0.21516369747607    3.77642076790355
C         3.74303443267199    1.15825797901837    4.51608725292038
C         2.38741316479507    0.94797357972727    4.25239876684038
C         2.27591160683121   -0.10288280416543    3.31888935745107
C         2.80538020803014    0.97080023216736    0.63217712599289
C         2.00121587313687    0.10346844689742   -1.59984984640773
C         2.17638650196361    0.89253885215119   -2.74748636353970
C         1.73603654878825    0.39627752511039   -3.96181660830440
C         1.13502270994172   -0.84887157966377   -4.04606037771857
C         0.96471406572661   -1.61653390353576   -2.90523142394118
C         1.38940332702043   -1.15829797005388   -1.67102826035217
C         2.83060097752574    2.23426619132189   -2.62752772068623
C         1.21756919481063   -1.96167016057881   -0.41912487104092
H         1.19465462898123    3.35948901222889    1.77570857749795
H         2.05041952156854    3.51551216845393    3.36720303420267
H         3.35971145596145    3.82665326573588    0.60604795783404
H         4.63216467760995    3.93736354566268    3.38484951220214
H         6.30950155496870    2.23141303866529    2.64511837207398
H         5.83579668427739    0.86322687196303    0.67785049839198
H         4.92812671651712    2.23124517834907   -0.05180895980612
H         3.82599476997005   -1.48457544849776    2.50416256632668
H         5.54616098784140    0.03129687447183    3.87476669252000
H         4.14574280112031    1.84183162490106    5.24703874515117
H         1.55946586932367    1.45202705720621    4.72566712109813
H         1.35511502351714   -0.58785246461168    3.02607550206387
H         1.86392080559619    0.99259884854500   -4.85379489928256
H         0.79749018334645   -1.22098275676537   -5.00161337150211
H         0.49420370756884   -2.58667511326120   -2.97598421770345
H         2.34516836360710    2.82396880832669   -1.85013000093542
H         3.87785060105493    2.11791945905955   -2.34690874214207
H         2.77991547328242    2.77457304318696   -3.56912485108086
H         0.76347088389675   -2.92467245220886   -0.63676956307881
H         2.18166692757850   -2.12255492023878    0.06250064250103
H         0.58731725768821   -1.42439525306495    0.28938207579787

