63
CSD_code = KOCYIN | q = 0 | S = 0 | Stoichiometry = C28H26HgI2N2O4 | MND = 4
C         3.17651570373138    6.33085472337729    2.15523581158651
C         4.11673117220992    7.40152624919433    5.14732823692459
C         2.21147321415018    7.28501162320038    2.58293168358091
H         1.46916012272156    6.95862557413416    3.29785586393056
C         5.06474856843918    7.78456020155538    4.15687484898760
H         5.72844109023256    7.01493246611729    3.78860651097604
C         2.20754214786477    8.56124202493437    2.10553612180368
H         1.45643402104471    9.25907885863339    2.44637210568930
C         5.14560353450350    9.06631214968626    3.70175295267842
H         5.88505541848636    9.32783857115772    2.95851310735847
C         3.16737572954033    8.98914456294259    1.17044940945000
H         3.14386881371560   10.00552130634134    0.80921124200796
C         4.27769863087899   10.06270529790500    4.18460387048525
H         4.35010725652397   11.06648706496238    3.79579041469962
C         4.11449618208821    8.11483802222759    0.72833026100815
H         4.85666816918203    8.42605573558773    0.00595359243028
C         3.36402089115542    9.75340027431223    5.14715037421416
H         2.70272416255351   10.51237521309637    5.54195709876149
C         4.15391358606200    6.77657879246477    1.18607699385155
C         3.26564866626353    8.44565909681343    5.67819756481717
C         5.14180904068843    5.90605316777169    0.71012241086555
H         5.89109814728116    6.28719310120375    0.02340137966871
C         2.35788054956201    8.17874110731806    6.71095362540784
H         1.69436998348241    8.96865371142658    7.04657005779036
C         6.10530178917780    3.65953442882248    0.70400844980817
C         1.47928358572422    6.53008871188938    8.30403957621804
C         7.37564438919629    3.93112710007714    0.21132492763303
H         7.68954382949750    4.95407578832650    0.07223870491380
C         0.42134680051434    7.24764888414513    8.84912408157810
H         0.20698076227545    8.24252989367868    8.49240079207309
C         8.24766796032571    2.89639010852956   -0.07080054479049
H         9.23453182069846    3.11376386768653   -0.44783523433822
C        -0.36758854664492    6.68546411618625    9.83436494229240
H        -1.18973986073558    7.24684631750917   10.24906048360084
C         7.85630080012682    1.58715098525491    0.14773070752314
H         8.53940281087662    0.77811085392166   -0.05964312190772
C        -0.10672466806634    5.40062296393351   10.27604158132383
H        -0.72591160923832    4.95484734844797   11.03888435437680
C         6.59349526864270    1.29705410770859    0.63734690609886
H         6.31418150368432    0.26995528804081    0.80508126432301
C         0.94172536977689    4.66837655024441    9.74344255138807
H         1.11621133075530    3.66527031720271   10.09673376455357
C         5.70030262602588    2.32211620856901    0.91551597666384
C         1.74717258544178    5.21717940124278    8.75665941212340
C         3.97334138934577    0.86012838068773    1.65138459164082
H         3.95605675565332    0.23511036158567    0.75353021364336
H         2.95740990733923    0.98556252743279    2.02269993659342
H         4.58593092931685    0.38795657987766    2.42385465295807
C         3.13764635387398    3.28841706865290    8.59760923917203
H         2.33199377764875    2.57976122352863    8.38378250411746
H         3.37260382664824    3.27045716454314    9.66567873355366
H         4.02573334351391    3.01116818783079    8.03123812513164
Hg        3.11923986849965    4.19156531401868    4.71118996612391
I         0.57349592352482    4.31469200848938    5.30344569377405
I         5.24960130833192    2.69047796102626    4.79948865690558
N         5.18922125410534    4.64005808548537    1.04901554040559
H         4.40674550468510    4.34772824174251    1.66597192931740
N         2.30240787009565    7.00844191898233    7.30095467152798
H         2.99321708376495    6.33297896110755    6.92366358947970
O         3.17902985008093    5.13603117491081    2.59300228539983
O         4.03973308375813    6.20061012997660    5.55724368340361
O         4.43182994421492    2.16124629816528    1.36026377800021
O         2.80134867523584    4.59086627407609    8.17018709445353

