80
CSD_code = KOCZIL | q = 0 | S = 0 | Stoichiometry = C20H50BrO2P4Si2V | MND = 7
Br       -2.25524274535949    5.04727480128446   12.03206564583217
V        -2.65504843879242    7.41305525240391   11.37087621889214
P        -1.81048427839094    7.87741920590319   13.45517269364045
P        -0.44507760328899    7.34603689851177   10.77487212707048
P        -4.78103611011609    6.98588772258102   12.10565857855891
P        -3.42044085811868    6.47866253099456    9.41783142463816
Si       -5.49784488180582   11.02460008779332   10.43968524121538
Si       -1.14325790217189   11.66623109023109   10.10275577051787
O        -4.70391855819746    9.61249309918706   10.30531661473876
O        -1.47105334244448   10.34989120060343   10.99860042053523
C        -3.56930451819693    9.01231122074099   10.76612818581791
C        -2.32691880373913    9.28815065781474   11.00475850090740
C         0.03985200530443    7.77328485994516   13.41931532357214
C        -2.05236296960519    9.57509671866280   14.11342139725205
C        -2.11411908821135    6.92685964996253   15.00113073534598
C         0.54278272429929    8.23752275028754   12.06082646033019
C         0.58271854155872    5.82219375464515   10.63934455224882
C         0.13868375031587    8.14480125781298    9.22531223312327
C        -5.88097492536163    6.75545395277901   10.63556469752356
C        -5.30213872360440    5.51053429998304   13.07959262863859
C        -5.70974021026612    8.23573694790499   13.08296961783742
C        -5.14689819004284    5.84870916237389    9.65945084864100
C        -2.71179910685667    5.02234148513341    8.54463591255889
C        -3.65233177199553    7.59083491313797    7.97445870332960
C        -5.08145642572853   11.92818709509070   12.07204259207064
C        -5.20494765718055   12.15657309029456    8.93310269791634
C        -7.33801832467319   10.52076848139865   10.41018550550788
C         0.75319217446442   11.83938746764693   10.22205590100343
C        -1.89777100250211   13.24926397162529   10.85211185013264
C        -1.67806741667286   11.44417130514691    8.28097130428930
H        -6.84035226172834    6.32522313254481   10.94557369452769
H        -6.05785504095135    7.73553682468672   10.18902526049666
H        -6.36328844133263    5.58018086173413   13.32407612423329
H        -5.10639249681507    4.60292589320490   12.51162849901749
H        -4.71275304601454    5.46252488090290   13.99515429904449
H        -5.38512815693093    8.16163647107237   14.12303075448462
H        -5.49535176143335    9.23421316797461   12.71534571277022
H        -6.78266606877813    8.04441327768999   13.02744620666674
H         0.47050895064532    8.35608133802609   14.24190728457881
H         0.28686716581509    6.71520824565037   13.56978801430171
H        -1.55708742945542    9.68746141910678   15.07957408968375
H        -1.64653117770088   10.29650608261215   13.40722098825842
H        -3.12148996418287    9.75832648193477   14.22733778460917
H        -3.14368838865146    7.09232823857585   15.32265918005046
H        -1.96874589830496    5.86513087165022   14.80427398368304
H        -1.43049228835583    7.25503965949128   15.78600274950658
H        -5.66357997917933    5.77286372731788    8.69558823616008
H        -5.04535874404732    4.84286899425026   10.08513830094883
H        -2.54292763064094    4.22057891307554    9.26286276143537
H        -3.39395081973832    4.68228855414121    7.76355162060285
H        -1.75825207655375    5.30666869258884    8.09672597694637
H        -2.68440624109864    8.00789285889895    7.69378043879574
H        -4.07312099658954    7.04243431568117    7.12972993576497
H        -4.31812686079049    8.40582177068325    8.25080636763944
H         1.61053535956391    8.02682653311843   11.93004277360456
H         0.37309677008009    9.30833996874228   11.93517540105718
H         0.62632724532581    5.31726903400443   11.60256624269258
H         0.11626406904431    5.14052875964324    9.92825024178253
H         1.58852236197966    6.07888114993590   10.30298960444524
H         1.21018955146115    8.34467213291239    9.27831561276172
H        -0.05846697056872    7.46077769013280    8.39714286841360
H        -0.39966477396934    9.07170750766103    9.05486767688828
H         1.28299687926068   10.98883238284816    9.80390374641380
H         1.07975143853606   12.72427711021212    9.68583894554220
H         1.07614522846773   11.94988051104259   11.25341954745627
H        -1.69202268180096   13.31848256263034   11.91712748372411
H        -1.46053715675400   14.12473528474421   10.38197887797822
H        -2.97285567452795   13.31005472262162   10.72374778774993
H        -2.54087289163738   10.78654773445608    8.20932385809609
H        -1.94643359445377   12.39023849400471    7.82147187259426
H        -0.88505798581880   11.01149972010494    7.67576664221056
H        -5.75729746989348   11.64524016878831   12.87547666733863
H        -4.07052550704918   11.69364690751642   12.39623177951554
H        -5.15083473922809   13.00613699611035   11.96515994268125
H        -4.21596542828701   12.60128560548512    8.92053566841359
H        -5.32967152886224   11.61223791159170    8.00060685254652
H        -5.92911958184831   12.96542709816994    8.93323215149158
H        -7.96574191073305   11.40470579497486   10.45256119337560
H        -7.58828835013211    9.99124938198303    9.49520910849352
H        -7.61547834791703    9.88172923118906   11.24301480479772

