46
CSD_code = KODBIP | q = 0 | S = 0 | Stoichiometry = C15H26Cl2N2Pt | MND = 4
Pt        4.92045557384278    0.24278750205071   11.00146178634549
Cl        5.48295999766078   -0.31381791792529   13.12050974725182
Cl        2.89810742537769    0.72021348722321   11.90166462046181
N         4.32547913779833    0.65926639133939    8.96145668258629
N         6.99517966508456    0.28782601100376   10.19467785052458
C         2.86116608841248    0.66040058809013    8.78409428158325
H         2.42938713414873    1.36870295634333    9.49290201362150
H         2.62890934726875    0.99315268862547    7.76050470892839
C         2.24833100573573   -0.71429634866987    9.03093081162170
H         1.17539424380012   -0.65358578387966    8.84806120057933
H         2.39796675423057   -0.97434755807139   10.08068989819201
C         2.89133137285342   -1.77869332835268    8.15282476479351
H         2.64068218956890   -1.61176290143702    7.10139136242611
H         2.52468735575398   -2.76661988184681    8.43193450953088
C         4.40035722222828   -1.69762411183794    8.34184646982268
H         4.63338374649149   -1.89283094037059    9.39642845721090
H         4.91467420344407   -2.43531492302405    7.72367002421709
C         4.87345521537363   -0.29019448887437    7.97806038209617
H         4.44891588447532   -0.03415750206500    6.99064813567080
C         6.39464797783715   -0.19557885921461    7.81223082500022
H         6.66939502131221   -0.88663873846287    7.00694332603565
C         7.21329539887726   -0.58750003593657    9.04124338930338
H         8.27003623444837   -0.57600935073346    8.74338313115106
H         6.96861089901048   -1.60789992502812    9.34660849830338
C         7.90815959527078   -0.08762723134361   11.29040937992568
H         7.79270422856672   -1.15893951897750   11.46718179957804
H         7.57207678889307    0.42772665799137   12.19271964971820
C         9.37446795193930    0.27173618617743   11.06976871327137
H         9.93460913168506   -0.03938840669912   11.95174878218000
H         9.79958545196504   -0.25003733663858   10.20972862211058
C         9.47587766271813    1.77732437052252   10.87219224264445
H        10.50979053553722    2.08231508202015   10.70088314042029
H         9.11688700145703    2.28670300944146   11.76853301854902
C         8.61500296105509    2.16041577156368    9.67586629779626
H         9.04564648183713    1.70709891464851    8.78232001414031
H         8.62774988488802    3.24286166369445    9.53486328767140
C         7.15036502595462    1.71973906208489    9.85854321514847
H         6.75091212786732    2.27865195435523   10.71860418081128
C         6.34820145814390    2.10901924573657    8.60113684949719
H         6.58268240693389    3.15726846233048    8.38585809536832
C         4.82542642736190    2.02323662548553    8.74884256714300
H         4.48554649503016    2.63895120017102    9.58886899911948
H         4.38366421254985    2.43756429277080    7.82784501590767
C         6.74786111556905    1.23292385152610    7.41698883373003
H         7.80873243362304    1.32267318456400    7.18586855335474
H         6.19404152611902    1.53290592963892    6.52476186465362

