61
CSD_code = KODFAL | q = 0 | S = 0 | Stoichiometry = C35H23AuNP | MND = 2
Au        3.11594261260276    0.97592658165297    3.30403588895010
P         2.10730254432122    2.65069321640362    2.17081472826402
N        11.07815408778884  -11.69177332197887   10.77860748125097
C         4.00817904639268   -0.47061091128873    4.25974306074964
C         4.57839300186860   -1.37698350192936    4.82559550133125
C         5.25210567754708   -2.43630018457806    5.47377472622642
C         4.89968463738711   -2.82344583743984    6.77131607371286
H         4.10270835411632   -2.29770340201274    7.27842051460806
C         5.55605929924292   -3.85987687971157    7.39508786537622
H         5.28180744528974   -4.15846516910977    8.39742540970615
C         6.28483888170871   -3.11770447716521    4.81943293672328
H         6.55779736351712   -2.81891751260816    3.81694023644375
C         6.94368511890183   -4.15335795979300    5.44037985454486
H         7.74057795090394   -4.67950910677056    4.93332742109339
C         6.58700848043811   -4.53961713755432    6.73734261025678
C         7.25836023844288   -5.60378763601713    7.36580026524861
C         7.84189892716212   -6.52253740980793    7.89383099109233
C         8.51885648112588   -7.59565747707542    8.50029438336654
C         8.13597014378861   -8.05024200658337    9.76801295229350
H         7.31649474246656   -7.56499184484741   10.27764169899618
C         8.79552429289989   -9.10494072651531   10.35738977053079
H         8.50246860276212   -9.45952939764159   11.33508469401914
C         9.58124395284985   -8.22232052464473    7.83722707416443
H         9.87513106106186   -7.86887120772598    6.85974848998905
C        10.24305707445398   -9.27675301004624    8.42419122845764
H        11.06321586988917   -9.76291793315097    7.91575723518850
C         9.85421542921887   -9.72695239006092    9.68925465595034
C        10.53023219117464  -10.80907775278510   10.29125934502785
C         0.31534342702481    2.46368929336827    1.94032578567226
C        -0.41727881564521    2.18289451361502    3.09191633404030
H         0.09960993528747    2.10106138812767    4.04056320830637
C        -1.78550642550066    2.01048524741588    3.01772243089933
H        -2.35230838950024    1.79687945012498    3.91158237886352
C        -2.42696547981646    2.10506009878225    1.79194560389674
H        -3.49597093839444    1.96577841835695    1.73126838177286
C        -1.69887311346480    2.37148597334607    0.64407727286389
H        -2.20003609463563    2.44080814306962   -0.31028916428974
C        -0.32808662582058    2.55074591977300    0.71157827921619
H         0.23879715922617    2.75823891210076   -0.18547937078442
C         2.23497826095314    4.30645850883507    2.90567217477748
C         1.26465974859854    5.28814997212973    2.72691603279346
H         0.38456013533433    5.07651339506685    2.13474825783870
C         1.43307218876735    6.53042153098275    3.31034688246173
H         0.68096415649047    7.29348796623152    3.17219917056673
C         2.56134751858997    6.79788975727220    4.07019092576895
H         2.68560591980368    7.76966236529631    4.52435998923866
C         3.52663573769684    5.82054282588898    4.25246588628230
H         4.40287821022084    6.02745890572716    4.84861241609202
C         3.36324379433908    4.57491827658122    3.67470811316042
H         4.10437529031349    3.79803656697752    3.81810127280757
C         2.72512577219624    2.88157274538066    0.47963951612115
C         3.07424825823458    4.11316044170476   -0.06098229258334
H         2.96793508457306    5.01446787692296    0.52670924521289
C         3.55941755194107    4.17805149620456   -1.35572085886327
H         3.82994229826152    5.13496687599978   -1.77748054728736
C         3.70014008119509    3.02421537671852   -2.10900754820866
H         4.07977197789892    3.08277672179138   -3.11813425102556
C         3.36195658068648    1.79318514026621   -1.56778434001053
H         3.47877571570413    0.89259698299065   -2.15212183691785
C         2.88289330144541    1.72006777793479   -0.27438640309923
H         2.62623426865508    0.76419605577976    0.16659996084345

