41
CSD_code = KODGAL | q = 0 | S = 0 | Stoichiometry = C10H24Cl4P2Ti | MND = 6
Ti       -1.10491413431107    2.79345033810175    4.13817918227011
Cl        0.69273587468037    2.36789573809463    2.84381126987341
Cl       -0.14355389898855    4.15283993361707    5.53127709879946
P        -0.22228906105821    0.83378578476276    5.47796273526670
C        -0.57709112277513    0.84344230586756    7.28974813007869
H        -0.14796502080045    1.77599699676730    7.67397592974646
H        -1.66526234001401    0.93020640153607    7.37521740767119
C        -0.07164862763922   -0.35141343309153    8.09021491913242
H        -0.46448043529426   -1.28498014454848    7.69461921224061
H        -0.40225055734999   -0.25886215998441    9.12260031677714
H         1.01417589708680   -0.39979618121030    8.09187612333904
C         1.55825459704908    0.36732117684699    5.36311299381332
H         1.73779643019446   -0.55067699283615    5.93050755647120
H         1.77022310748473    0.18076408895944    4.30628288106256
C         2.43069486654334    1.51411229744043    5.86065888179360
H         2.20405427299616    2.42010441239348    5.29713615928594
H         2.25483463303309    1.71289768872982    6.91623104720562
H         3.48422298199362    1.27951895798474    5.72453359351424
C        -1.05868278734093   -0.71768530846615    4.90120758604713
H        -0.51171302382040   -1.59693997503055    5.25652711683470
H        -2.06202847557412   -0.71797710424565    5.34084426661176
Cl       -2.90280671386129    2.36672877292370    5.43143944181237
Cl       -2.06586619431991    4.15256661554828    2.74454887978343
C        -1.15127680384737   -0.71765570033485    3.37471300418679
P        -1.98777681555332    0.83380530567741    2.79806616575504
C        -1.63287429202089    0.84343767032601    0.98627100697388
H        -2.06195682853774    1.77599797626943    0.60200110221423
H        -0.54469590617555    0.93015674437382    0.90077806453214
C        -2.13831010081887   -0.35137804118679    0.18573004637075
H        -1.74551967874089   -1.28496526980840    0.58131797080268
H        -1.80767444877143   -0.25882739193253   -0.84664830402078
H        -3.22413476198494   -0.39972477844274    0.18402396518489
C        -3.76828916078390    0.36729604531872    2.91284067858996
H        -3.94781159769865   -0.55071225340440    2.34545644349956
H        -3.98022565942050    0.18077181485022    3.96968069228622
C        -4.64066341853943    1.51411750442108    2.41525851936205
H        -4.41401393226554    2.42010080930089    2.97879285399338
H        -4.46477160534239    1.71289645786030    1.35968835300345
H        -5.69419203678558    1.27953481463875    2.55136282574545
H        -1.69822833831649   -1.59691374421702    3.01937323456434
H        -0.14792488231052   -0.71793817387068    2.93508064752460

