100
CSD_code = KODHIU | q = 0 | S = 0 | Stoichiometry = C38H51F6MoNO3 | MND = 5
Mo       -1.02607363057164    1.21197476243897    4.68797401165814
F        -5.53989214696207    1.57500095752434   10.05133153572629
F        -3.80383323465533    2.84298525920796    9.94219660103521
F        -5.60775841462911    3.40300047039986    8.91914894366335
F        -3.56908475087091   -0.60207904931754    9.90227146899055
F        -5.43145329281063   -1.17209770310243    8.98320212959985
F        -3.57245477481924   -1.90629476554361    8.19529311428466
O        -1.56811459502695    1.94711269764621    3.19363478200166
O        -1.59028421968786   -0.49126209039434    4.37710250220946
O        -4.05929698547253    1.37208925977177    5.75140247158914
N         0.66376292784143    1.19324833848215    5.09366908268032
C        -1.67431418729771    3.05378808370883    5.72080277103643
C        -2.31711224472195    2.34122714285851    6.91897647779449
C        -1.99265100723910    0.86509567059398    6.66562681631661
C         2.01771844548290    1.18615352662378    5.11216333946724
C         2.75721672447652    1.66333812633495    4.00187971348801
C         4.14030677056035    1.61612080793773    4.03518172408993
C         4.81753470234006    1.13001276213242    5.13831052493747
C         4.10173465316318    0.67466887895039    6.22955725870079
C         2.71796462262533    0.68937289807627    6.23679506958988
C        -2.27096116587273    2.27575791020571    2.04831291140013
C        -3.61651518563307    2.90537990803604    2.44666439206867
C        -2.51293237187704    0.96541578625730    1.28041048618005
C        -1.45157001381987    3.25677227403604    1.19429184191641
C        -1.21239514740003   -1.81897761913023    4.23559287585229
C        -2.33221974597315   -2.60389169339169    3.52980114346907
C        -0.94302049175967   -2.41755198991216    5.62641919073048
C         0.07645790046704   -1.87069779817971    3.39695383268043
C        -0.83833298599624    4.28861002930481    6.13845500179364
C        -3.86651274037962    2.34296725203118    6.76723555174176
C        -4.36694092887613    1.63795079333314    8.00494859864492
C        -4.83196511421368    2.34956257492026    9.22302624416316
C        -3.42222876643715    0.30193870931206    6.42922280546550
C        -4.07323278109681    0.34562600132190    7.79622626483631
C        -4.16596065694986   -0.81804523320218    8.71883962244151
C         2.05094002108924    2.19636261428658    2.77765190061445
C         2.56498048179899    3.58509138079843    2.38950804786097
C         2.20730961194379    1.21662588150879    1.61051344895106
C         1.95966175841371    0.16844451307716    7.43390272989368
C         2.30085482450806    0.96301462663670    8.69616184669201
C         2.25028198241144   -1.32010985337781    7.64642735044459
C         0.40879188965214    3.87731688829977    6.92487659204810
C        -0.35665320056060    5.01120697887796    4.87203880550277
C        -1.76348053911752    5.18720732947622    6.95180247190029
C        -2.85441731160757    5.80352844995919    6.34103414282112
C        -3.76213742483113    6.55322193625771    7.06456696473956
C        -3.61006874777091    6.70309621334264    8.43194899970916
C        -2.53421420223237    6.10141359701579    9.05613027177504
C        -1.62402654747221    5.35577731943410    8.32557827939748
H         0.26442183809103    5.86497537913078    5.13672664948127
H         0.23148681898284    4.31783814998776    4.26919071799564
H        -1.18530456066140    5.37175232173946    4.26815243217367
H        -2.50047772427631    3.46950067853353    5.11829704238162
H        -0.79997532398605    4.90315451633594    8.85247825335193
H         4.63304873857718    0.29518212346933    7.08927523082879
H         0.16023904170530    3.22721042926340    7.75908998423657
H         1.08557617963230    3.33393560556736    6.26907454180785
H         0.92906782321432    4.75669994165270    7.30070100844519
H         5.89690447879125    1.10548684704364    5.14588865477387
H        -4.59716999796163    7.01673291517309    6.55876611872729
H        -2.01639650383006    2.73283630931697    7.89350025988112
H         3.34088778541580    0.81659301401455    8.97748274698782
H         2.13702194874794    2.02464546393748    8.53210792932606
H         1.67471212117336    0.63662505485622    9.52362244124103
H         0.97748870879716    2.27757582515570    3.01433661079454
H        -4.33115644207941    3.29511343232850    6.52538422253566
H        -3.45486455126597    3.88971248356007    2.88224698404460
H        -4.26049954056623    3.01187468071121    1.57760880566495
H        -4.10877146212164    2.27073316304822    3.18485603208008
H        -4.32388274331979    7.27879265724365    9.00130268021395
H        -3.01323963906135    5.69809360799425    5.27736044767813
H         1.60900253102400   -1.72167987981753    8.42801664470686
H         2.07515127650573   -1.87925038001214    6.72997796866136
H         3.28540812923042   -1.47148513658358    7.94328329702013
H         4.70466835545011    1.96649212562019    3.18395191546354
H        -1.54112434363779    0.36592767655271    7.53583390170300
H        -3.07368306132841    1.14527423292100    0.36720016050555
H        -1.55417633673510    0.51037342176126    1.02833982515478
H        -3.07226511929835    0.28000635831495    1.91850199487855
H        -3.51615651341866   -0.63144719668765    5.87897579401909
H        -2.40067329222757    6.20381381886558   10.12291734568407
H        -0.52364397228820    2.78592469827578    0.87561454502107
H        -2.01624021401642    3.55768261430002    0.31612980017995
H        -1.20781775373186    4.14059385572511    1.78138424600800
H        -0.52185304094358   -3.41495965278064    5.53524381190862
H        -0.24013563368765   -1.77322096374895    6.15332766230280
H        -1.86168270013836   -2.47880394810041    6.20536322323231
H         3.58677619150596    3.53548461847633    2.02177541265305
H         1.94396292961290    4.01046495501662    1.60358071473620
H         2.54260403530342    4.25271053170835    3.24757070367216
H        -3.25620999433026   -2.53047624725968    4.09976807276920
H        -2.50480045141072   -2.19666920850969    2.53535628666025
H        -2.05979438893011   -3.65150506331706    3.43916411016650
H        -0.10592655347426   -1.40965138108744    2.42546289006515
H         0.86012108524071   -1.31296557146668    3.91263661132958
H         0.40309586778401   -2.89625218335462    3.24524879158693
H         1.78061334518166    0.25041967279707    1.87225245051998
H         1.70167894211411    1.59461098103297    0.72344981841223
H         3.25830398378194    1.07403594039618    1.36876398870006
H         0.88887194072345    0.29321589604922    7.22529526299472

