68
CSD_code = KODJIY | q = 0 | S = 0 | Stoichiometry = C28H33Cl2N3OZn | MND = 5
Zn        0.33182011145741    1.20363307493899   14.21607266504631
Cl        1.95623504492304    1.91604018316905   15.63365426951858
N         1.99078700490641    4.19701337402735   11.70816832090667
H         2.00994594793101    5.19895685358976   11.82069834543903
O         1.24824572414450    2.21300217585986   12.45178034898605
C         1.25507860823141    3.43394602104510   12.52436801424911
Cl       -0.09645934281164   -0.71691919873483   13.28277902125087
N        -0.34498911162505    3.26559763870788   14.22115143135592
C        -1.76765144512864    2.55005911159499   15.96490234570976
N        -1.43383107408704    1.36778659683679   15.64607082304988
C         0.42084272616275    4.11994901540470   13.56466421090125
C         0.46304161103848    5.46645529381423   13.91188020385455
H         1.09121110760478    6.17389651187421   13.39369480870774
C        -0.31779198575382    5.89051008230580   14.97748249042270
H        -0.30545503614012    6.92774574050299   15.27722660315181
C        -1.08932282641397    4.97514418813834   15.67288859249539
H        -1.67081888640843    5.28773718430338   16.52447268321608
C        -1.06963295190758    3.64138533363555   15.26405097651875
C        -2.79401444934389    2.90014338904269   16.99792485973068
H        -3.32130567611987    2.00335839912809   17.31625117071050
H        -3.50874496377636    3.61633050835476   16.59615707775714
H        -2.31132852886108    3.34673680701180   17.86642094820797
C         2.88062633079336    3.62043506991770   10.74461451585720
C         2.35871885735417    3.09386948613620    9.56333483977266
C         3.24574332790821    2.52234896719257    8.65960938847378
H         2.87113023924979    2.09466847432893    7.74317240189078
C         4.60024598416467    2.48265855555602    8.92390733461674
H         5.27440012955511    2.02956409622492    8.21233021119790
C         5.09624260612945    3.00733600137414   10.10231845986406
H         6.15399201599951    2.95226638071645   10.30312913286367
C         4.24621099725745    3.58350092403419   11.03595075530988
C         4.77050607940940    4.08064235025893   12.36265393097955
H         4.04221908576377    4.77184428789600   12.80117249910244
C         4.91440524261162    2.88755109459160   13.31265352436401
H         3.95892587836743    2.38922908169429   13.45581590040398
H         5.27144710576544    3.21917572335510   14.28467485292041
H         5.61879744665721    2.16461792291237   12.90822930521913
C         6.09662435506695    4.83121554524106   12.22989797496920
H         6.03249067126675    5.59632986829648   11.45835131447678
H         6.90972225000089    4.15509926971052   11.98164123949097
H         6.34109804038622    5.31128999119893   13.17485501253023
C         0.87777580944115    3.10951529360921    9.26993198817929
H         0.37190917301667    3.72725543822985   10.01988119173749
C         0.58496116413308    3.71683074221686    7.89558874332779
H         1.04357018186021    4.69968469914042    7.80338778396924
H        -0.48921093339339    3.82193890880993    7.76022092531465
H         0.96390637518891    3.08481837051201    7.09756245672148
C         0.31930932092531    1.68783067153143    9.37234121480031
H         0.51210102685617    1.27637025890665   10.36007155603584
H         0.78401364338241    1.03984943538868    8.63369954792815
H        -0.75504435660279    1.69292108055353    9.20265950903021
C        -1.97813678038849    0.22129841692078   16.23892716180030
C        -1.47770811215455   -0.24474187042915   17.45856874814007
C        -1.99203247300045   -1.42647957482828   17.97232914683874
H        -1.60589397921336   -1.80058089372583   18.90920054269475
C        -2.97876842580095   -2.12579633823510   17.30328568090403
H        -3.36609081608253   -3.04430832654492   17.71778667753487
C        -3.46221617417553   -1.65080641218668   16.09790784643842
H        -4.22777397317896   -2.19854924788330   15.56877795397330
C        -2.96964714523003   -0.47997773512030   15.54441058976210
C        -3.46820572116876    0.03174369329748   14.22986460108680
H        -2.66100313751913   -0.02415919333653   13.49918477525459
H        -3.78826045480620    1.07145026104526   14.30357980644964
H        -4.30141411240823   -0.56940766028897   13.87634615624493
C        -0.40163775365707    0.50381783925520   18.18459872880367
H         0.38362759017337    0.81977872418570   17.49990171845220
H         0.04023338439442   -0.12338676458245   18.95427105093205
H        -0.80417157231815    1.39703880843219   18.66454109220328

