82
CSD_code = KODQAV | q = 0 | S = 0 | Stoichiometry = C32H47OPZr | MND = 12
Zr        5.76193622955055    8.30441347008514   19.08523760475880
P         7.56454712705633    5.74140576465047   19.53468172375777
O         5.02652657399712    6.56691559725595   18.84426550750973
C         8.17314823737136    8.84646864648568   18.48033428665330
H         9.01942807624352    8.57557730824103   19.10272568124921
C         7.51898727368200   10.09527381506967   18.47258855499805
H         7.76586831870506   10.94453977823902   19.09551409896295
C         6.61663761542460   10.11189640328223   17.39717744116763
H         6.03781162998585   10.96510227579346   17.06904999008542
C         6.72259884687220    8.88117764687522   16.71779582237776
H         6.23779158231701    8.63117190702458   15.78147764124443
C         7.69021451214690    8.10338109196213   17.37901613725190
H         8.11569365238526    7.18120226612037   17.00201403334353
C         4.39573871815778    9.22457274415687   21.03681270905418
H         3.35644244061225    9.51815114113311   20.96054752698179
C         5.50617312022345   10.08800380275306   20.92119227093634
H         5.45684320517509   11.15358570786420   20.73125572650685
C         6.65903618951046    9.35855986964481   21.26556004046015
H         7.65243782500314    9.76505440028068   21.41173577134300
C         6.26751981869153    8.03995343881568   21.57376168643584
H         6.91519414782452    7.28515792071560   22.00217982184395
C         4.86461371063942    7.95983177225700   21.44197366667112
H         4.24105360305751    7.11173190351281   21.69191716639962
C         3.87892075746766    9.03992647097647   18.09077318291975
H         3.86312121074849    8.82070585509400   17.01231314209656
H         3.71783019813664   10.12226878123111   18.20601969388922
H         3.00516939092936    8.53036023426741   18.52486975992336
C         5.42922825617097    5.70563608259646   17.83577245453057
C         4.29092778018671    4.89345557300804   17.20277692707602
C         4.87524036498563    3.98756728081694   16.11836466094989
C         5.96597788474529    3.06454409374666   16.66651884335831
C         7.07769335906018    3.85393456231589   17.36223675952108
C         6.43975664729979    4.71796690840722   18.43928030892926
C         8.18467147284083    4.36922595481154   20.60426976911114
C         7.27122411719061    3.75750386854055   21.47803977410436
C         7.65921783859794    2.65058991803175   22.21750412153764
C         8.94722111320245    2.15017992027721   22.15142100195796
C         9.86779824113418    2.82873974904501   21.36879931524107
C         9.52278695581174    3.93297126396331   20.60364793587143
C         5.88448267258866    4.31354521929907   21.71636840911491
C         5.78257070053805    4.80900766448228   23.16302069157898
C         4.78266107665899    3.28389087469622   21.45021417827484
C         9.36099336469659    0.93376280458885   22.94180245767592
H        10.40333808346146    0.70323659068419   22.69364104890352
C         8.50485393071393   -0.27829313072081   22.57011732227337
H         8.85938030365755   -1.16408755761865   23.09278460148916
H         8.55587950544636   -0.46404690208296   21.49936222592085
H         7.46453053408451   -0.11590664320428   22.84039503084340
C         9.28081696072302    1.21472527117635   24.44403766741702
H         9.63238569201832    0.35377496105403   25.00849977689724
H         8.25701728482728    1.42613497706582   24.74262074044196
H         9.89654915391778    2.07373060420664   24.70173295519105
C        10.59549730385833    4.68648428406853   19.84672406807889
C        10.79964121664437    6.04876694406363   20.51631081804103
H        11.51823302187784    6.64568306564848   19.95859315166797
H        11.17304180707236    5.91138729751949   21.52923705038754
H         9.85804604668032    6.59613659284719   20.57379187457784
C        11.93694719812677    3.96495160373534   19.73227151994442
H        11.81382057931350    2.97620114545117   19.29647526789314
H        12.42153673617507    3.87151124677471   20.70142622560174
H        12.59700923922358    4.54010293277670   19.08551781882458
H         5.91095567926613    6.27440624912817   17.01112792348449
H         3.55138283682731    5.57560377904026   16.77829458640977
H         3.80016869768270    4.30176955038699   17.97815083342767
H         4.08052710787995    3.38439531232212   15.67457407064304
H         5.29939609130518    4.61155872451100   15.32752070556563
H         6.38610659349650    2.47295532754401   15.85006374555245
H         5.52198408337179    2.37111066832109   17.38466612929169
H         7.59763577399841    4.48027726924386   16.63175167428211
H         7.80472236037860    3.16693320707394   17.80397576565496
H         5.87582527684137    4.06518077494611   19.11097577003338
H         6.94010080192161    2.17602498325210   22.86676709231498
H        10.88600947148971    2.47442853609581   21.36566575174903
H         5.72279803958618    5.17533654822244   21.05219754228397
H         4.83168181263565    5.31042684493079   23.32519950213028
H         5.85385894112760    3.97883482483929   23.86221930720277
H         6.58354837457996    5.50784499911493   23.39014497830733
H         4.91036698279149    2.80395286053845   20.48211819693960
H         3.81005600301417    3.77073631715700   21.46629956837539
H         4.78457173097123    2.50523593809433   22.20972867136333
H        10.24494648803872    4.85066963171584   18.82065914834353
H         8.63109639754061    5.67851261769970   18.62823157457534

