71
CSD_code = KODTAY | q = 0 | S = 0 | Stoichiometry = C26H39ClN2O2Pt | MND = 6
C        -2.06294152579139    3.44164403342733    4.39766543804099
C        -3.32228593104000    3.83298804851921    3.68841306868059
H        -3.80714546128675    2.93234887312691    3.30912761878000
H        -3.08712826433407    4.46127393347120    2.83189760820384
H        -3.98367185988133    4.36444347884878    4.37198091671616
C         0.87804805104468    3.03356545021634    4.09559732446481
C         1.00239446997191    4.52931809584384    4.19064281913907
H         0.73174178899843    4.99909595006611    3.24838450981361
H         2.01897129781208    4.80118430927534    4.47411182536022
H         0.30944609281688    4.88169662624562    4.95318121647121
C         1.13704338881088    0.33679195569981    1.49892066496746
C         2.11719540858374   -0.62809353059081    1.30565988726703
H         2.63661840147060   -0.64668864791833    0.36069026051150
C         2.43312520326272   -1.53205034114850    2.31340031592860
C         1.67638448326438   -1.44995241971686    3.47440133811721
H         1.86519793015143   -2.11068706594187    4.30184677601511
C         0.68315316227838   -0.48181207402691    3.59498624097950
C        -0.17122162185480   -0.42069216774624    4.79255415406152
C        -0.41092557370394   -1.56669541465141    5.54819927765297
H         0.00903427129223   -2.49955078056744    5.21494563568072
C        -1.21279271050146   -1.51913310917896    6.67915389354062
C        -1.72591154374556   -0.26744554143705    7.01394496429682
H        -2.34312061595850   -0.12789589956163    7.88637304659514
C        -1.47066584345608    0.82041437089415    6.20431585383597
H        -1.87594483951175    1.78875669252262    6.46165870599345
C         3.54561710843908   -2.54362872929385    2.11273682573564
C         4.85172966786492   -1.78643877880536    1.83509972810411
H         4.78046019633871   -1.19061959375141    0.92948013274666
H         5.67154023285841   -2.49099540111475    1.71513395263272
H         5.08547636277494   -1.12155279444200    2.66393887273250
C         3.19233217984391   -3.43615931836841    0.91474797996709
H         2.25237207972308   -3.95448888245061    1.09295686813329
H         3.97206382670710   -4.17891854889920    0.76267024418943
H         3.09338218207785   -2.85541911281668    0.00198426465156
C         3.75504547056947   -3.43666492161092    3.33806352987699
H         2.86369816615895   -4.02137076305864    3.55512459421390
H         4.02003881534910   -2.84613151637928    4.21223794504457
H         4.56958345450239   -4.13098060832014    3.14372801170782
C        -1.53874663503343   -2.73440956185988    7.52423116590718
C        -0.88082432089348   -4.01139126560178    6.99554443017127
H         0.20391272465832   -3.92556446280951    6.99918619448494
H        -1.22097008568990   -4.23883096934880    5.98776732763051
H        -1.15141758288709   -4.84804251377183    7.63584854149692
C        -1.04437357618614   -2.48910448075823    8.95692856423537
H        -1.52715992933720   -1.62365563366190    9.40195978631641
H         0.03101332884189   -2.32222577290677    8.96380093706407
H        -1.26230581792976   -3.35566240033466    9.57681928467851
C        -3.06104833058631   -2.93274470757492    7.52115457860105
H        -3.57314337495094   -2.07947324902865    7.95707162183638
H        -3.32188895922582   -3.81797355165841    8.09671033743212
H        -3.42239567986912   -3.06271408885198    6.50325635759201
C         0.84683535650232    1.33578235281035    0.42433134141395
H         0.94208990281060    0.85777082695116   -0.55131447299616
H        -0.17646899439064    1.69673829703198    0.54736367978266
C         1.82080597076406    2.51753944412905    0.52697904475107
H         2.82994684781327    2.17899937494405    0.27913346182513
H         1.82992785718897    2.86469928443648    1.56347672590688
C         1.43242904899856    3.68419852442716   -0.37864670293928
H         0.41877251754961    4.00407619457878   -0.12999688419702
H         2.10496015592613    4.51979831821121   -0.17099521101907
C         1.50932667616899    3.34349036396250   -1.86214826943280
H         1.30851216687929    4.22790934363655   -2.46207999065563
H         0.77754450716506    2.58490224427269   -2.12632115948793
H         2.50063995501727    2.97507572092626   -2.11882211696993
N         0.45458362304703    0.41717160417356    2.63572466545007
N        -0.73080849893532    0.75231955593896    5.10514868853223
O        -1.80159675129081    3.77263248074919    5.52255167567153
O         1.75690800273466    2.28131400537909    4.42357387361387
Pt       -0.82920460487081    2.12977475236672    3.47798492587100
H        -0.92223729727565    3.03002083902803    2.26194227495036
Cl       -2.77255610477315    0.64832327371954    2.91147901165220

