48
CSD_code = KODZEK | q = 0 | S = 0 | Stoichiometry = C15H29N2PPt | MND = 4
C         0.28184449031041    7.68192834820408    4.93011935836995
H        -0.37730423516485    7.85605694584421    5.78001440600506
H         0.54556944834690    6.62625422207292    4.90994882512532
H        -0.26730719744664    7.92309436921511    4.02466171062356
C         1.20895853335293   10.00961350704576    5.04310947470243
H         0.58750173814718   10.25471096899013    5.90447795781508
H         0.64895611918284   10.26927414269181    4.14734415361911
H         2.10313380145577   10.62917033213924    5.09521515878875
C         2.21953480759785    8.14840268552142    6.39725162731991
H         1.51022366676595    8.22014259740456    7.22022110023807
H         3.06330954963246    8.80112236372476    6.61780148212780
H         2.58320198888541    7.11160802245000    6.34412586620283
C         1.54791853032586    8.52335243275570    5.07067982406512
C         1.07997822266751    8.16880522006568    1.61865334342649
H         0.98222768913842    8.25831879880834    0.53701646940742
H         0.32977849902120    8.80978033189794    2.07680053987925
H         0.87836533136060    7.13513460452252    1.89359972974614
C         2.70410701571285   10.06266283442972    1.82918542625082
H         2.44321884400879   10.30690008741332    0.79947248091030
H         3.74693977025682   10.33972402748893    1.97324421796306
H         2.08146837929535   10.66887209873879    2.48211435706384
C         3.51392915631710    7.77270556673946    1.24024047048972
H         3.40992883878124    7.97504814009047    0.17510508068667
H         3.37916206243262    6.70206291239163    1.40821469161009
H         4.52855352697910    8.03667490068826    1.54079707892304
C         2.48638501382626    8.56753196719652    2.05396356422437
C         5.31127097112093    8.44972167926166    4.68995557452087
C         6.36301735069436    9.33544399221655    4.96221908539435
H         6.22291398930364   10.39447525317700    4.80058148197273
C         7.55865874812372    8.83800526598582    5.42988337217207
H         8.38126478903326    9.50342140044406    5.64518335571383
C         7.68101430767934    7.46610465093685    5.61437881605024
H         8.59846364027147    7.03056295163760    5.97442984023100
C         6.59441675968554    6.66445733303719    5.32864116903855
H         6.65403881309928    5.59578559944287    5.46655305915001
C         2.14469404538425    4.62844656931178    3.74900739907070
H         2.51406771120766    3.79055515214125    3.15102567626823
H         1.41739314004303    5.17037737878574    3.13599689051274
H         1.60849325032649    4.20329965007415    4.60397277210240
C         4.56787703692236    4.14804067153465    5.07179374670222
H         5.46625697228924    3.92267440524137    4.48156101340675
H         3.97022082136813    3.23466082951050    5.08705968764056
H         4.88409072498358    4.33408390795717    6.10819206470794
N         4.12660456768204    8.93074967556376    4.21121668916480
H         4.06314879701607    9.93412875532556    4.10501096548487
N         5.43142963710010    7.13025686829553    4.88248203404771
P         2.81410964505463    7.92278301873960    3.80259009808447
Pt        3.68177069042196    5.84081256284691    4.35258681298121

