62
CSD_code = KOFKOI | q = 0 | S = 0 | Stoichiometry = C20H35BN3OPRu | MND = 6
C         3.54894147029942    0.23282377578269    2.52328749193649
C         3.43421672267427   -1.02642630337378    2.10882349113187
H         3.83800998957759   -1.83172980548504    2.70478276160492
C         2.73190431270042   -1.41719061319726    0.84289296754390
H         3.46004721104849   -1.74066738271189    0.08308581445466
H         2.07635458295434   -2.27619122308648    1.02887697544859
C         1.92450974649427   -0.26315231042137    0.33173414663693
H         1.14926658152738   -0.47985976347903   -0.38260381211367
C         2.12706244376717    0.97843551088187    0.77596761594791
C         4.24088337831094    0.60243458087682    3.80715631552083
H         5.19062304451708    1.09251433759268    3.57308592879803
H         4.45072916531537   -0.28348633681748    4.40974530029521
C         0.92785212510499    2.37219869034953   -0.94728644782932
C         0.38680496110133    3.63708930746771   -0.87196873391869
H        -0.09277818184501    4.17582448097682   -1.66351448679128
C         0.59932296240026    4.08449304152892    0.44108479765830
C         1.03356885907228    1.47696637883850   -2.12666855899794
H         0.23455031506663    0.73488334196668   -2.13545915435550
H         1.99009800238805    0.95672666722928   -2.13126893136364
H         0.94706658628694    2.07301431636084   -3.03220501497577
C         0.21745438784641    5.37820739397548    1.06291002654313
H        -0.35869938246857    5.19589087561078    1.97057612798829
H        -0.37441043237670    5.97012137989288    0.37025572105474
H         1.10932690456600    5.94024914232467    1.34255494209320
C         4.50199415961471    2.78185443802526    5.75124939486254
C         5.13076109930767    3.80457294536872    4.80046672367837
H         5.88279762760595    4.38845335913908    5.33024337562194
H         4.36921617774930    4.48786824249533    4.42478039899582
H         5.61527154480027    3.32688874245845    3.95140449751127
C         5.62026510131766    1.92515207945273    6.34383468615746
H         6.18444894981154    1.41334166040785    5.56797450885099
H         5.25135060735886    1.18772379823108    7.04704873787777
H         6.31165153412644    2.57623071610890    6.87889335826366
C         3.77569317789141    3.56404284891249    6.84581836019431
H         3.46761517343411    2.92259577862765    7.66693033107971
H         2.89675486725843    4.05582196763617    6.42703544243846
H         4.43400331852467    4.33090433424797    7.25291536049677
C         2.15935811461587    0.74760806510479    5.86761834218845
C         2.91505552451954    0.06699336900561    7.00715385198335
H         2.24375754105782   -0.63690666924238    7.49916876941567
H         3.24693417595005    0.77849054692593    7.75751635728642
H         3.77176740264146   -0.49550523641776    6.64104573817270
C         1.02875467170871    1.61301535349619    6.42672457919091
H         0.56232215247027    2.17503682302278    5.61693822095905
H         1.38793467224327    2.31602397465799    7.17171841699461
H         0.27306114905466    0.98341854151165    6.89421954577103
C         1.54304515996199   -0.34637381619672    4.99047918688694
H         2.27831983473869   -1.09144253096079    4.69741016276894
H         1.10218602295353    0.08653940011723    4.09412876171729
H         0.75195763068154   -0.85314616883750    5.54121700006572
C         1.49749231416434    4.32492542592143    3.83793745652329
B         3.97050707287393    2.53646102570260    1.48140803453130
H         3.52244082285744    3.52971490600740    2.27289426973743
H         5.10028239657611    2.29559417605810    1.76440238839984
H         3.85499316708826    2.88271264531999    0.34170664748007
N         3.01718076226313    1.32523307445484    1.80188709456024
N         1.42194087884366    2.09679693262742    0.28936321428448
N         1.23704376518496    3.14295778946104    1.11601558331213
O         1.14068601415059    5.25112178763927    4.43844829532823
P         3.20298730174146    1.85038342255867    4.71812713179891
Ru        2.11498423873247    2.85174126310111    2.93828592579591
H         0.84517811780424    2.04678550472785    3.24524456451746

