51
CSD_code = KOFKAU | q = 0 | S = 0 | Stoichiometry = C23H22ClF2N2Rh | MND = 6
C        10.75271094330904   13.27769760795125    5.94673704170861
C         9.17386618137451   13.38341540988517    7.53315676765532
H         8.74743516064285   13.62664806152819    8.48400204925546
C         8.60228975521062   12.86854509109429    6.42582161902761
H         7.58840628609614   12.58230199325247    6.23828561289278
C         9.41080516773116   12.19956773572193    4.19855692969140
C        10.05057488491658   12.71692679213193    3.07458785697132
H        10.63326171695355   13.62806632502128    3.15822180583271
C         9.90979541676064   12.08962972594532    1.85068357129972
H        10.39091020564413   12.47777180912150    0.96721189579576
C         9.12354318594083   10.95468609739560    1.76256889137923
C         8.46883154547631   10.43358066897806    2.86421045385730
H         7.86171252914834    9.54854527803900    2.76029593240300
C         8.61811451480489   11.06032399479259    4.08707653048543
H         8.13133855056834   10.64936389604569    4.95857134161368
C        11.39146612298273   13.56980707189374    9.47539079984710
H        10.60561747789261   12.88932958977702    9.76682300154551
C        11.45729927113340   14.04709742394261    8.16887103274468
C        12.48411103388718   14.90988213974336    7.79293621332368
H        12.51252971960933   15.30772764686511    6.78433840196418
C        13.44596623719443   15.28128623087490    8.71391315132812
H        14.24644733700432   15.95071632072464    8.44227542715996
C        13.36541491111578   14.79174446682186   10.00550749300810
C        12.34639904896750   13.94404370747634   10.40193233568487
H        12.31276470766443   13.58108654272723   11.41676424025755
C        14.42447052223574   14.24169253779820    4.37354067512253
H        14.45997720744642   15.31381307649254    4.56708351806953
C        15.49567757080964   13.42790987499946    5.06517160300614
H        16.24007827789597   14.10527014962889    5.48820954154144
H        16.00608631721232   12.81137788732748    4.32374378966277
C        14.92775026705837   12.54909593597992    6.19563760501002
H        15.55841059470062   11.66374794575620    6.33485245192483
H        14.95232513159329   13.11240951507281    7.13210246957632
C        13.50044818218052   12.11179492678777    5.95968541740589
H        12.99149156968804   11.82505052595720    6.88123096089340
C        13.01983470412743   11.56911393210380    4.76601819861846
H        12.14419616612205   10.92323798169299    4.83263055964597
C        13.90044830509465   11.29331702236169    3.56530012848380
H        14.90642440181791   11.05138483647992    3.91153738231129
H        13.52013494643013   10.41409384839233    3.04135036931632
C        13.94010845546873   12.47573605524711    2.57846792777674
H        13.14125075756183   12.34796290864511    1.84428448828521
H        14.88815096734727   12.47434240505292    2.02947552068635
C        13.75548885611273   13.81934803637625    3.24528893162419
H        13.32685589029645   14.58151070455526    2.59421042353873
Cl       11.48669890384070   15.68297603991451    4.46889251528889
F         8.98689055008642   10.33876416687891    0.57136312202878
F        14.30336803002947   15.14887841504966   10.90546251770621
N         9.58066428157436   12.80012570642955    5.45974707601446
N        10.49562793153598   13.62397603850993    7.23233917487583
Rh       12.42132929973964   13.60327789871192    4.92443323490394

