35
CSD_code = KOFMAW | q = 0 | S = 0 | Stoichiometry = C14H12Cl4N4Pd | MND = 4
Pd        0.75603917891570   22.06233280876759    6.33819653447719
Cl        0.56590482672270   20.44421139316166    7.85463919252836
Cl        1.99415681923040   16.97943624477918    6.14335154304813
N         0.90974606218072   19.44934018092356    5.04255962585288
N         0.98659112320440   20.75771531367467    4.83522248590481
C         0.83671280294168   18.39781177615089    4.14563390057497
C         0.24902079906983   18.49631517314146    2.88292789033413
C         1.26189394525224   21.35162282471256    3.70627390147281
C         0.65349403347566   16.16497263978504    2.47292303440909
C         1.30275374070487   17.14074368526845    4.56279611551176
C         1.21200376893071   16.03838879838811    3.73443778332254
C         0.16552963632788   17.39159244818606    2.05653577151592
H         0.89187272038058   19.23248303854302    6.05412982202422
H         1.58038074952706   15.08541395595224    4.07903449154388
H         0.58994459183499   15.30463585158736    1.82598950361402
H        -0.29455499052252   17.49037946284602    1.08542171783446
H        -0.18345976013704   19.43185933986008    2.56475198437237
H         1.50070452524816   20.80759870075176    2.80003786626238
Cl        1.99418504050157   27.14546769858753    6.14336402184324
N         0.90963659909855   24.67552232474543    5.04265163965787
N         0.98653116628257   23.36714481817886    4.83532780413720
C         0.83662388937459   25.72705386197229    4.14574183184078
C         0.24893962248411   25.62857781427770    2.88302327805665
C         1.26186762466155   22.77332133029809    3.70634527751577
C         0.65351993313505   27.95989461467744    2.47293077401980
C         1.30273109309702   26.98413460742338    4.56283697502691
C         1.21204517090971   28.08647260268713    3.73443908892934
C         0.16549694829915   26.73327914575842    2.05659591157556
H         0.89177683437933   24.89237767261277    6.05428419382297
H         1.58047890834579   29.03944063420257    4.07899839194040
H         0.59000887938424   28.82021752741970    1.82597267035896
H        -0.29459723605798   26.63449059526538    1.08548565534494
H        -0.18356741241242   24.69304140097974    2.56485342702356
H         1.50065656551086   23.31741752774603    2.80015338533505
Cl        0.56623179971862   23.68109218668850    7.85383250896638

