63
CSD_code = KOFPUR | q = 1 | S = 0 | Stoichiometry = C32H20Cl2IrN8(1+) | MND = 6
C         6.84821584795096    4.75087806832013    4.14699523389033
C         6.55538467127749    6.99402270414332    4.24906358390653
C         6.99571452158606    8.24614704016230    4.71410921568020
C         6.46460899068855    9.39137126306550    4.18533707658463
C         5.49682218840664    9.32637529014820    3.16803442014485
C         5.01535381680212    8.12367164289848    2.72588373047699
C         5.50010273106077    6.92349178702883    3.28536018314246
C         5.10992140919606    5.61703156858108    2.90081241427261
C         3.95117722761670    5.25670776001103    2.07977128126806
C         2.70247446620946    5.93073075471347    2.05566589912512
C         2.28631437875907    6.93460109085445    2.95452471251050
C         1.06279871216735    7.52913211174835    2.79746276481840
C         0.20434025850525    7.15921061041185    1.74807922243598
C         0.54824459855620    6.14556231651751    0.89538191291638
C         1.78271344291087    5.48950396568532    1.05319518431289
C         3.15811515515155    3.77508896313282    0.48564674986812
C         8.72663723193457    2.35630899427688    1.64088583866576
C         9.40899443441240    0.19373312577505    1.63036877681909
C        10.38442793443474   -0.75830517385327    1.28034372240333
C        10.08077260868714   -2.09127358797950    1.33329390755712
C         8.79727185726643   -2.51722467009778    1.71854824941353
C         7.84105267096624   -1.61899501286456    2.10834355391524
C         8.13356371482832   -0.23927146441596    2.11407260754268
C         7.23081499694921    0.79565939095406    2.45995642573205
C         5.95142566661574    0.64293954094239    3.15576179498921
C         5.65237670171889   -0.32701481037831    4.14837290049979
C         6.58183699616554   -1.17933553152481    4.77898816551970
C         6.15392977087120   -2.09441153196507    5.70380514004269
C         4.79427431923513   -2.20607223338121    6.03973272542630
C         3.87269634671054   -1.35334202190147    5.49425182444890
C         4.28699422394035   -0.37751003467009    4.57046325799036
C         3.80680056614156    1.47266696008413    3.35142205223909
N         5.85907448040136    4.56217003505657    3.25479423161137
N         7.16235764852638    5.87729594446562    4.69601332906471
N         2.06755306355821    4.43041889932227    0.27196646939033
N         4.11626866009835    4.13141766424844    1.37136317052308
N         7.49417195703577    2.06317056665596    2.10786467516082
N         9.68113215280964    1.50168727069316    1.47298660146150
N         3.39126221102178    0.52326232263685    4.11956529119828
N         5.05379731485434    1.58866434835283    2.85260836550201
Ir        5.81064660750247    3.13708314308201    1.73806168314933
Cl        6.83791961180284    4.82314065116211    0.53017906579200
Cl        5.69811337969027    1.74255557281618   -0.10458315220783
H         7.40900227784692    3.87487466826648    4.44576974360805
H         7.77676063370995    8.26332085552533    5.45661554062616
H         6.80905249100053   10.35600295631063    4.52451726059018
H         5.13763637613721   10.24142792844598    2.72324283209821
H         4.29961793585773    8.08730199538615    1.92010094591063
H         2.92059541487436    7.21048600117829    3.78218340018957
H         0.74654824501977    8.29025414456636    3.49383669155993
H        -0.74334297497354    7.66314139678383    1.63906785855510
H        -0.10780965562560    5.80290035530207    0.11198066065226
H         3.34320604678047    2.88509833433568   -0.10149364266499
H         8.92625899057722    3.39292988086328    1.40418212801465
H        11.34092733077408   -0.39773468899272    0.93884292236438
H        10.81657215303545   -2.82740402016661    1.04897331768934
H         8.56226431466249   -3.57004039864083    1.69393570254378
H         6.84968753079967   -1.95685805241721    2.36618504293249
H         7.63256654201522   -1.08815761964437    4.55377442379873
H         6.87162075871664   -2.73716339422449    6.18956363046239
H         4.48685258351274   -2.95205277981806    6.75591558305738
H         2.83085162107500   -1.37903538235948    5.76896945719674
H         3.08816183845859    2.22756252451659    3.06128224296953

