97
CSD_code = KOFTEH | q = 0 | S = 0 | Stoichiometry = C46H44ClIrO2P2S | MND = 8
Ir        5.90325434097302   10.08938747443286    4.75270205733707
H         5.65849897186423    8.82613877015770    3.92108975036543
Cl        6.43227188011182   12.28830552611772    5.57111839580068
S         5.49944760500875   10.54562902957582   -0.13276206684395
P         3.89394041178385    9.32409898302288    1.96745103721891
P         6.18723462390951   11.13908911654964    2.73757207512214
O         5.38691126399538    9.17736947053782   -0.60290642874027
O         6.77678862291523   11.19619795547047   -0.29413209632221
C         4.96658507546632   10.63306017955161    1.54212179594340
C         4.32747492962103   11.51338146288032   -1.09196396139074
C         3.99478717197570   12.78722152229020   -0.67350511481680
H         4.42061197872113   13.17358441671429    0.23930875261034
C         3.11806410316129   13.54226162838862   -1.43072138236428
H         2.85215927803285   14.53801182458634   -1.10642670815794
C         2.57454798994589   13.03404677060044   -2.60675881674144
C         2.93337373664990   11.75451573855921   -3.01510188785194
H         2.52289754260398   11.35110529608826   -3.92944759029692
C         3.81096620458824   10.99506992052237   -2.26233694685203
H         4.09699587366642    9.99805560174988   -2.55799011942389
C         1.63752989689144   13.86275239517145   -3.43163152236058
H         2.20505564606933   14.47448623421114   -4.13334571675045
H         1.05300432843434   14.53048938816684   -2.80310447632101
H         0.96296829512130   13.23189726889367   -4.00546360845645
C         3.11756974861488    9.92338350293329    3.49446139407174
C         3.90394847096345   10.43310818232968    4.54142648918812
C         3.22990601817566   11.08972597253147    5.57303522913022
H         3.79476455417314   11.57887749747764    6.35306617208069
C         1.84833068474231   11.16770081897875    5.61256080923951
H         1.36606435260039   11.68769930914104    6.42767044837484
C         1.08748399451833   10.57237490536770    4.62080950332961
H         0.00884871915891   10.59698748294490    4.66492181101631
C         1.72626640430999    9.96881932380068    3.55488773835958
H         1.14362748182624    9.52409096160565    2.75905667147621
C         4.27750844776087    7.54784142465655    2.19975101263941
C         3.65767763218269    6.86286844699391    3.24099398936810
H         2.96773299983404    7.38759037546505    3.88635689429427
C         3.94284841839213    5.52682309240936    3.45267449250595
H         3.46367810439448    4.99675594654733    4.26327286585764
C         4.84540558947189    4.86923568571361    2.63072069295998
H         5.07264379302742    3.82755812755521    2.80450387007754
C         5.45289010756418    5.54772607303619    1.58691065737236
H         6.14975045447256    5.03342011030330    0.94139166846859
C         5.17053856936428    6.88494865612405    1.36587571079366
H         5.61802309282693    7.41872815354731    0.53971414944456
C         2.62775081486965    9.37717598683476    0.67793514978241
C         2.33897729241903    8.29156642087172   -0.13576059956996
H         2.86055602714882    7.35709205336567    0.00914342223230
C         1.39161154485182    8.41902371039953   -1.13786486393200
H         1.17217905622150    7.57727379141309   -1.77801175555844
C         0.72460147859500    9.61857176556065   -1.31868433514501
H        -0.01743845755965    9.71080405992691   -2.09787481554805
C         1.00576202862933   10.70192519863456   -0.50036173659277
H         0.48462569649844   11.63700712341394   -0.63995704909286
C         1.96224547974275   10.58615441491525    0.48908493513154
H         2.19976821314225   11.42270384568950    1.13195097109887
C         6.01290666778492   12.93233301955428    2.48031233484666
C         4.92198454481586   13.54954168406474    3.08674821147697
H         4.29992331005009   12.97334623078904    3.75776465287072
C         4.65370994591326   14.88331776096297    2.84563629708715
H         3.81508258595717   15.36074875818686    3.33149309364533
C         5.46264621020916   15.60662349023094    1.98257203762868
H         5.25790308571669   16.65124452845749    1.79665682839454
C         6.52832203973317   14.98660586687565    1.35264593976586
H         7.14869643885614   15.54351454612552    0.66530230741548
C         6.80642620112444   13.65108327234612    1.59404431775223
H         7.61613180989823   13.16395433645712    1.07282112537437
C         7.87452375683898   10.72685202620258    2.21133943563663
C         8.93148422498546   11.55773667825540    2.57232744791511
H         8.73036075393768   12.47334656599841    3.11307335916061
C        10.22928304011476   11.20700969286467    2.24472421354760
H        11.04711904969810   11.85993191680743    2.51454414244178
C        10.47902585198755   10.02159173594916    1.57350761178691
H        11.49214934808830    9.75394327817526    1.31064247661120
C         9.43069685723337    9.17673004382484    1.24301905841566
H         9.62787770607012    8.24813178161975    0.72711086996976
C         8.13283886419429    9.52091836194419    1.56994557848970
H         7.30805490586538    8.87135650240752    1.31302980073372
C         8.07780380133547    8.55404919851906    4.98988255868086
H         8.24788342837933    8.37910236255840    3.93460705025114
C         8.37774241939170    9.76122738016909    5.49705997253709
H         8.80432222739656   10.50350593237444    4.83236677005585
C         8.39384677673420   10.15345850077396    6.94615530665410
H         8.35134629332384   11.24262966202503    6.98913718880831
H         9.34856615013974    9.84127472180786    7.38562194440040
C         7.23539046495483    9.59677411483325    7.79054980206427
H         7.12259545376774   10.24599045273377    8.66156881878775
H         7.47854726298350    8.59880324321956    8.16196141069181
C         5.90519380748611    9.52827432449603    7.08084032593004
H         5.15877862605860   10.21607117335006    7.46098849371584
C         5.46589933064718    8.44810163702462    6.35943970984258
H         4.39037828551331    8.30936380660624    6.26055876829462
C         6.23983821940173    7.17351618113966    6.11638880211274
H         5.76706175826601    6.65364686732581    5.28064577959995
H         6.12600125766844    6.53501818311932    7.00089756993070
C         7.73973419407260    7.33775688132518    5.80783770855188
H         8.31189682152658    7.37214178016422    6.73599663826932
H         8.06760963739818    6.45091312360906    5.26040722634090

