34
CSD_code = KOFWUY | q = -1 | S = 0 | Stoichiometry = C6H18Cl3O3RuS3(1-) | MND = 6
Ru        3.18165642435301    0.72650197677892    6.87663961095940
Cl        1.28805398294721   -0.61880378320064    7.39349588945579
Cl        4.50788163730178   -1.12380167977600    6.18179094334460
Cl        2.42947338078417    1.22250247358478    4.67476446836410
S         3.72877537019648    0.23631356421167    9.01757593299456
S         1.94542367123775    2.55373219630350    7.38122334221387
S         5.08176038815349    1.86864570998541    6.42074589903164
O         4.91903747935157    0.88173892610889    9.56584878411058
O         1.99268358289184    3.02813924279020    8.76214472641989
O         5.09331198297692    3.29511361728456    6.73586073611989
C         2.42360048213708    0.46989727229000   10.26284777289722
H         2.82556022889405    0.17363191419968   11.22447805271968
H         1.57495079696914   -0.13372191696947    9.96221159811545
H         2.16859227722935    1.52439861631446   10.25378876018437
C         3.95354644501348   -1.55102656631144    9.30328714088160
H         4.78285884708063   -1.87784982412958    8.68424081092056
H         3.03802578221837   -2.03547008537061    8.98116206193619
H         4.15894436003413   -1.71365710113165   10.35478338634682
C         6.62071716349809    1.19700867805911    7.11978760706484
H         7.43676348653879    1.83282829487750    6.79734707862899
H         6.72177600922933    0.17756235228963    6.76547306734796
H         6.50957687886877    1.22019781438207    8.19881139540544
C         2.21218687014747    4.02412495884041    6.34482195770333
H         1.54305197073032    4.80178325245530    6.69368445720563
H         2.01894462080019    3.73761619439509    5.31731338871564
H         3.24973422664388    4.31361164572422    6.47507608627518
C         0.17689215529797    2.35136559643813    6.98320555344828
H        -0.20504590833169    1.54173667783875    7.59681416940476
H         0.12328779818090    2.07812674144134    5.93471285111956
H        -0.33734326705693    3.28168632309890    7.19393549808052
C         5.58791248689520    1.73971092971340    4.67306650491611
H         4.80207428966542    2.18655581610924    4.07248964460749
H         5.66852623999359    0.68138809257246    4.44914341318904
H         6.52840785913450    2.26201207880214    4.54272740986646

