118
CSD_code = KOFYEM | q = 1 | S = 0 | Stoichiometry = C64H46CuN4OP2(1+) | MND = 4
C         0.39565650865779    9.53435409478990    8.78375520071441
C        -0.71990840828548    9.81085098165539    9.58338638389676
H        -1.69985872203953    9.51368153674205    9.24223371135183
C        -0.57862301441837   10.48767683806555   10.77806262396732
C         0.72822519375851   10.85200377719943   11.19039718517326
C         1.01800951560038   11.43634063381098   12.45268822060064
H         0.20726834044186   11.59616964131424   13.14642773531878
C         2.28757746156794   11.75713491587736   12.80429210676025
H         2.49063987307343   12.17268203250270   13.77900864418494
C         3.37776892843675   11.52114841865523   11.92462010288436
C         4.72472333073363   11.82675034730458   12.24635827466777
C         5.71083166945964   11.41623342052188   11.37299674526215
H         6.74784236773269   11.62078148289219   11.59203332444421
C         5.38091573465047   10.75869193612598   10.18109421690930
C         3.13525163852872   10.88479123000103   10.69007546179956
C         1.79295901130679   10.54575840407986   10.31790766821692
C         0.23458363537264    8.80963653503980    7.49010027311675
H         1.18805389060111    8.76669338503468    6.96432464534489
H        -0.50048126990999    9.30966292214949    6.86204436088384
H        -0.11566151898432    7.79440420636078    7.67337120692259
C         6.45153845003646   10.29624647972036    9.25203480091210
H         6.02196237489899    9.69096546457185    8.45604996540035
H         7.19513260983286    9.71156651474325    9.79104294144700
H         6.96082159978400   11.14942669483861    8.80586600960462
C         3.53862121371670    7.65854922554209   11.12143231222145
C         2.24251204183023    7.68723508071760   11.63310635062628
H         1.41873840895835    7.36436254539787   11.00895526273284
C         2.01150904193976    8.11444983155930   12.92651672053810
H         1.00538206750284    8.12543808180435   13.31920931496652
C         3.06912829486108    8.53294074919769   13.71804233206163
H         2.88897022825043    8.86692320445672   14.72834411741593
C         4.35776721414660    8.52369329984475   13.21010605880476
H         5.18150783121378    8.84909493765421   13.82812156149106
C         4.59384773486755    8.10093234067218   11.91506432142260
H         5.59860052744243    8.11096657205855   11.51461725802378
C         2.71501209964128    5.88014895596382    9.04765432675925
C         2.09959513196026    5.76101219400445    7.80629158927357
H         2.21597992896457    6.55062607970539    7.07660641110008
C         1.34875801295952    4.63854973843041    7.50602498292761
H         0.87867059256629    4.55065578309587    6.53791907097352
C         1.20411178555018    3.63316963143616    8.44720773338769
H         0.61848740662547    2.75657535651218    8.21613589642067
C         1.81050834223161    3.75190388114708    9.68862158525203
H         1.69522825011790    2.96830118172403   10.42238283491268
C         2.56838294202746    4.86752644172615    9.99131513266923
H         3.03789496148692    4.95713311210465   10.96058842123956
C         5.39250267186751    6.54394009537820    9.23018754171176
C         5.98428929680980    5.75697623789213   10.21054774363043
H         5.48145288598532    5.59976025866223   11.15346316008808
C         7.21776475900449    5.17527345231308    9.97589061080148
H         7.67235812263734    4.56137911482647   10.73825876748835
C         7.87113832979472    5.37404871059079    8.76976593246493
H         8.83439162870807    4.92013278957380    8.59647638150906
C         7.29110627448280    6.14972067719421    7.77962858495578
H         7.78742677445034    6.31248885218572    6.83468798553721
C         6.05197171603740    6.72275175253779    8.01196726337348
C         4.74132523772454    6.97683488509179    6.04576547085452
C         4.75558666705381    5.64158004273192    5.68682201322595
H         5.36222201238969    4.93285215729081    6.23050522248115
C         3.96097260582658    5.22755572843845    4.62799681671014
H         3.96863302653455    4.18787549055776    4.34002925999081
C         3.15485230702297    6.12709972224374    3.95116791838191
H         2.53411014518496    5.78705581063893    3.13703121409670
C         3.13380332248263    7.46328271550025    4.31930075338814
H         2.48818204862630    8.16206634400199    3.80771524743173
C         3.94349797503637    7.90064352469765    5.35613420973005
C         2.95524646269696   10.56790793189293    5.01297943508107
C         1.91469274737925   11.29986861447722    5.57259656947828
H         1.73951545986385   11.23300230821643    6.63931434168007
C         1.12719244844157   12.10914624983541    4.77290804696484
H         0.31848068329439   12.67753126665243    5.20811119576269
C         1.38158839363715   12.19386509282689    3.41414207764298
H         0.76759561839144   12.82391575612400    2.78883880764379
C         2.43155289783199   11.48018023901919    2.85577563110884
H         2.63517961857863   11.55917078771320    1.79848434918213
C         3.22323768383063   10.67297114222640    3.65063434030671
H         4.05342754680385   10.12785900243768    3.22256861613557
C         5.62264489213162   10.19575282633299    5.64327203880452
C         6.54044758042351    9.51740044637407    4.85283903212857
H         6.31525658510813    8.52733126848974    4.48186037308739
C         7.74574640754390   10.11946501571449    4.53406136808013
H         8.45906561339023    9.59414452306356    3.91649179225137
C         8.03624501835932   11.39252662893935    4.99491659160345
H         8.97592484234966   11.85722485660259    4.73817091643761
C         7.11937686391057   12.07256748022558    5.78198956128639
H         7.34379950884713   13.06786308377549    6.13639229552608
C         5.91779732975998   11.47476249436258    6.10858899542876
H         5.18983048776303   11.98966676638620    6.72396877080991
C        -1.76742759066264   10.81848672711080   11.57602664871507
C        -2.68840616776475    9.82333650055292   11.90009367845642
H        -2.50284366736479    8.80501694408198   11.59119940753019
C        -3.81836378530360   10.12460676337158   12.63223024713864
H        -4.52691953709852    9.35257190811986   12.89162314970604
C        -4.04949476516427   11.43922201089621   13.03808203466589
C        -3.14127695556255   12.44426540469544   12.70395977913117
H        -3.33198587156908   13.46127527180792   13.01181892869502
C        -2.00808861778199   12.13122656070337   11.98171803140025
H        -1.31468556240676   12.91162555648618   11.70406170032261
C         5.08680931565804   12.56102154216352   13.46614566960280
C         4.48079563950133   13.78050509061251   13.76861513648345
H         3.74041480396354   14.18985714781440   13.09696911244153
C         4.84582119340479   14.48345511105241   14.89842636974971
H         4.38275480766588   15.43119144909299   15.12826387535047
C         5.82267676021834   13.96733103944458   15.75032264385578
C         6.43815872462396   12.75125653130035   15.45230308945222
H         7.19654167473045   12.35986817261972   16.11350196340580
C         6.07523367865959   12.06237028887768   14.31354661021521
H         6.54768421941355   11.11903138106338   14.08256646450298
C        -5.20920314076891   11.75457011016234   13.78675359456919
C         6.19283647147900   14.68092818456153   16.91588994979815
N         1.60662780856085    9.91259145107089    9.14524337803709
N         4.12509472524216   10.53600395069646    9.84967291690338
N        -6.14573300073746   12.01092431499098   14.39388316981710
N         6.49027862459332   15.25461635798922   17.86133701711735
O         5.43916308032875    7.54028351961823    7.07976210469335
P         3.75586780776080    7.35295018925853    9.34733943735634
P         3.98604710024317    9.54780920174863    6.11345603424894
Cu        3.39824646834439    9.42231905532082    8.27750520733478

