50
CSD_code = KOGGAR | q = 1 | S = 0 | Stoichiometry = C21H25ClN2Rh(1+) | MND = 8
Rh        8.19410347725507    3.08998940633911    9.11062044604722
Cl        9.88461335292789    3.08993876020126   10.70961313192578
N         9.37936541045309    4.51426311140881    8.15075848557214
C         9.74457739476436    5.59253867807289    8.84462782855230
H         9.32121731552135    5.70020571850638    9.83517207335701
C        10.63753681233691    6.52468237548239    8.34995848469017
H        10.90580076429300    7.38157613018549    8.94545794463805
C        11.18142916181096    6.32475747438716    7.09062430993760
H        11.89151388664927    7.02324288854038    6.67683385624077
C        10.79536042503428    5.20562958608984    6.37225813525378
H        11.19361140301768    5.01801027409332    5.38782110548723
C         9.88347636818632    4.31961033111757    6.92893782694955
C         9.42582794053519    3.08997968611902    6.19103102706106
H         9.81209368107634    3.08997720303085    5.17353297704086
H         8.32968576217815    3.08997930179583    6.16036915631416
C         6.14223595962083    3.08998640296441    8.30897340752936
C         6.31467598478548    4.25132975683043    9.14002212704808
C         6.64673036351799    3.81482380301687   10.45583238054163
C         5.56478515419736    3.08998389000378    6.93002564909378
H         5.85821859839105    2.20384671873509    6.37142351170423
H         4.47579449567420    3.08998114223166    7.00248609775029
C         6.05323679220793    5.65850053113809    8.71611499146386
H         6.59893153594760    6.37066730234522    9.33019276541624
H         4.98745350676079    5.86497474952102    8.82587290738730
H         6.31996429047481    5.82103456431466    7.67392518910310
C         6.76542581697503    4.64865458228902   11.68723222837462
H         5.88240381674654    4.49340363293309   12.30834681246862
H         6.83655254562453    5.70693182605212   11.45110074627650
H         7.63790983081814    4.35687253732426   12.26946857778136
N         9.37936683969841    1.66570530392904    8.15076704836816
C         9.74457308773584    0.58742689663760    8.84463581330294
H         9.32120764093263    0.47975815979633    9.83517787615541
C        10.63752509376245   -0.34472358007037    8.34996483978338
H        10.90578118014961   -1.20162154438426    8.94546190009457
C        11.18142230579029   -0.14479913520886    7.09063257171082
H        11.89150489061205   -0.84328734528572    6.67684282107592
C        10.79536064785128    0.97433152927355    6.37226723382248
H        11.19361576764162    1.16195037423953    5.38783171057110
C         9.88347740655529    1.86035327025437    6.92894481485103
C         6.31467695613199    1.92864658276705    9.14002732891431
C         6.64672863609295    2.36515821624455   10.45583614668407
H         5.85821432792590    3.97612224453152    6.37142330188656
C         6.05323521896992    0.52147365892341    8.71612816812302
H         6.59894756806641   -0.19068969054113    9.33019455713095
H         4.98745567855737    0.31499260733532    8.82591036578066
H         6.31994015710567    0.35894010275399    7.67393264557079
C         6.76541397182177    1.53133262230128   11.68724077734620
H         5.88238754620799    1.68658793189718   12.30834820209390
H         6.83653955368241    0.47305397622704   11.45111466455108
H         7.63789367692539    1.82311545330822   12.26948303117532

