51
CSD_code = KOGHAQ | q = 1 | S = 0 | Stoichiometry = C23H20ClN6Ru(1+) | MND = 6
Ru        4.90945099499317    0.74876981524213   20.36961316912361
Cl        7.11886110924772    0.05158506369187   19.99103315789794
N         5.66888685540899    1.59733316007094   22.04593760350921
N         4.96237300092114   -0.44446642672097   22.86371937540375
N         4.59281231605931   -0.59283050824897   21.65533871161921
N         4.12384062810075   -0.25106187852171   18.81445720118701
N         2.96237237028437    1.29689825356567   20.52856033829032
N         5.33689652956537    2.26152895444166   19.11185683613422
C         6.30722171426120    2.75078319424563   22.21879553165612
C         6.93978310186226    3.08287178845157   23.40258617073504
C         6.91437876552769    2.18272155099031   24.46487549122854
C         6.25011998083826    0.98513671795600   24.30632617742864
C         5.64050345170788    0.71656422794923   23.07796459735235
C         3.81608809192890   -1.72794200655236   21.36990441752113
C         2.53361336476328   -1.85249881700323   21.89702654742078
C         1.74937489275533   -2.93020107272705   21.52738918324745
C         2.24549188346363   -3.88837848614250   20.65846152690724
C         3.53644534613166   -3.77917941471076   20.16427387288016
C         4.32604318946757   -2.69984064248430   20.51189243563020
C         2.77849928490248   -0.20573816220323   18.70762722975999
C         2.10797119925574   -0.93012369645427   17.72392135865364
C         2.83279638619958   -1.70171418114500   16.83426086006940
C         4.21668452719037   -1.71665060928776   16.94020388098440
C         4.81769395959804   -0.97913952606662   17.94391501032793
C         2.46190595260364    2.11682035748013   21.45097988811889
C         1.10632547478690    2.34244731637522   21.59558820172247
C         0.22658358720333    1.68697221838058   20.74286461759742
C         0.74125322224555    0.84127106680059   19.77808632517757
C         2.12067522325324    0.65924271014534   19.68596987578751
C         6.01513099457578    2.90085331802991   18.43724737727523
C         6.84309935573652    3.69843827614038   17.59760617798057
H         6.31356008020506    3.42758032919871   21.37343512585510
H         7.45226761871614    4.02684347864112   23.48888183424061
H         7.41027489119484    2.41741884201670   25.39315901461754
H         6.19847124615294    0.24022541431635   25.08238065925050
H         2.16418046843852   -1.10086836997026   22.58046271968453
H         0.75211125840271   -3.02611265340568   21.92815360115651
H         1.63127242214578   -4.72975412381917   20.37817789982808
H         3.93257216273911   -4.54120241473635   19.51114708923192
H         5.34278252592595   -2.60864877964409   20.15748380906472
H         1.03394935462512   -0.89001489682766   17.65376985898275
H         2.32965759328991   -2.27322509487276   16.07076518224255
H         4.82237970166021   -2.29232340073900   16.25986589368376
H         5.89448721520162   -0.96541232109753   18.06972206856060
H         3.17925916694954    2.61012240507379   22.09635280224944
H         0.74826946219474    3.01267278198562   22.35957568211544
H        -0.83794661237212    1.83488472776015   20.82998225619998
H         0.07930332158998    0.32311278251944   19.10495653607938
H         6.91566555341018    4.71266643340802   17.99194338624194
H         7.83925402160500    3.25323501737890   17.56538116019815
H         6.43235179308610    3.73192728112117   16.58782027188185

