48
CSD_code = KOGJEW | q = 0 | S = 0 | Stoichiometry = C24H16BrClNO3ReS | MND = 6
Re        2.56591992505001    1.34050143317541    0.25816479975982
Br        4.05366569953520    3.21603793423764   -0.49645796513391
Cl        1.79191989763466    4.60389764244291    3.90836526056012
S         1.35294209667077    3.28206090729515    1.30414921486652
N         3.81724982250864    1.63964916418385    2.18700044987442
O         0.77273225165679    1.56631216559097   -2.24386996352899
O         0.70168315145275   -0.68199191947381    1.64867887377691
O         4.34435250057354   -0.70443386229486   -1.23205712969132
C         1.44371122520415    1.42641710268702   -1.32931075223162
C         1.40554334452416    0.05528595398091    1.12143072310993
C         3.68091852554774    0.00972260692625   -0.62505709732782
C         5.01638444057770    1.14777544061953    2.32499890796093
C         3.43262396952953    2.68914549961758    2.98464852106291
H         4.02117796608028    2.88684745642986    3.87629701733332
C         2.31675117510237    3.40625935563004    2.77808411292782
C        -0.24018263593814    2.83302182435976    1.97878794752394
C        -1.36253010420462    3.22913869046689    1.26867176942742
H        -1.24845669934194    3.80164443892991    0.36040542320034
C        -2.61659078931028    2.87639815887156    1.73335610444486
H        -3.49439506302376    3.17957257045241    1.18350354690861
C        -2.74306962785909    2.14181146754943    2.90095900127600
H        -3.72252343647108    1.87072758009828    3.26441649558920
C        -1.61415659285350    1.75012160321855    3.60148616670961
H        -1.70999938939992    1.17176679853468    4.50793280325548
C        -0.35457252426375    2.08807006565694    3.14084562593211
H         0.52684284498084    1.77062867943686    3.67960796953166
C         6.10619111849406    1.86319420968031    2.99531506903740
C         6.32732633346720    3.21641011580695    2.72872356870707
H         5.70238066041050    3.73445222723939    2.01528388234403
C         7.38626427472781    3.87406676859085    3.32508738476118
H         7.55989712221920    4.91545335667204    3.10110944559570
C         8.21990313143074    3.20041142911268    4.20295992181839
H         9.04043729144801    3.71980926863789    4.67471231599859
C         8.00777620595152    1.85570460110023    4.46858734133582
H         8.66093967467764    1.32891977037935    5.14805097755854
C         6.96670514774331    1.18347577647613    3.85937363631344
H         6.79686920274277    0.13597977059607    4.06290272104687
C         5.34005404041586   -0.16353099097284    1.76637487666510
C         4.44418363812407   -1.22806586578642    1.90451880445172
H         3.51327906316488   -1.07740300444985    2.43136323992073
C         4.76886391327507   -2.47470912758435    1.40651206266898
H         4.07677626416818   -3.29416366296935    1.52540193841684
C         5.97352037932121   -2.66919884535603    0.74969384087085
H         6.21720123308419   -3.64039722676182    0.34683953231970
C         6.86634477974670   -1.61827605305629    0.61023016619132
H         7.80298698214157   -1.76913061455885    0.09564303774042
C         6.56238987209056   -0.37403928528250    1.12675497648185
H         7.24926769729015    0.45044862388535    1.00582343262936

