36
CSD_code = KOGKAT | q = 0 | S = 0 | Stoichiometry = C17H12ClN2O3Re | MND = 6
Re        1.13227941140306   14.08528598585596    7.28129033767605
Cl       -0.83961511387821   12.81869488311839    7.69450927019807
O         1.72416297846044   13.74174725329302   10.29155295565566
O        -0.50903956764126   16.53982703695051    8.18233715044394
O         3.72774775786124   15.56040949026650    6.48426068219968
N         1.83443287068945   12.10927116943282    6.59488399635055
N         0.37525365789383   13.93216272990113    5.21444913213790
C         2.63535605855031   11.25150556837228    7.20848445749824
C         2.63113327028691    9.88272376230707    6.88951423015701
H         3.27981270061091    9.21879321111726    7.43951719368785
C         1.80295607740195    9.40543641633585    5.91006341219485
H         1.76765437067455    8.35403556045153    5.66588368206665
C         0.99966693063386   10.31167998419306    5.19973252392407
C         1.05190908119415   11.66752113039948    5.58398417486733
C         0.15326558291527    9.90853825638791    4.13074768518477
H         0.11215702910567    8.85798913523381    3.88424725565771
C        -0.57169978211213   10.81847228628637    3.43957096918549
H        -1.21097461141274   10.51900384005043    2.62240353674804
C        -0.50702980065221   12.20095578675654    3.76554649692450
C         0.28121021018139   12.63234424277751    4.85244678189969
C        -1.20793999743407   13.18049394146430    3.04428300251915
H        -1.84459846387273   12.88678260976432    2.22287474260994
C        -1.05220985937395   14.49524192757226    3.39110288505447
H        -1.55729742526698   15.27638614638960    2.84450469255622
C        -0.24183271164706   14.84823742788419    4.48374272945715
C         3.57342995452867   11.73551111786838    8.26436953056448
H         4.48412163770228   11.14057508331801    8.25745971815602
H         3.11075092441290   11.63025016961205    9.24550962095087
H         3.82119632255520   12.78550777432507    8.11540819715049
C        -0.08049768596759   16.29480243066082    4.81582643050203
H        -0.88255567698821   16.61135221667486    5.48234392809565
H         0.86940293523412   16.47685196558310    5.31649080702497
H        -0.13851262019606   16.89633400245825    3.91145538706756
C         1.57739197948292   13.89421447016740    9.16575722813688
C         0.15237714877823   15.67777706225252    7.81939370118077
C         2.75893442591709   15.01748392444810    6.79245147422859

