77
CSD_code = KOGKAS | q = 1 | S = 0 | Stoichiometry = C36H36N4Rh(1+) | MND = 4
Rh        2.87699734637322    2.03779680085235    2.33959255593712
N        -0.02222497245743    1.66481486179881    1.39527404759284
N         3.39043520672815   -0.90768466843784    3.07568744820008
N         5.57261372398029    3.11819589000187    3.33924740113195
N         2.54770589644725    4.94127696968945    1.38981621724457
C         6.67064891704933    3.79504959526651    3.75071381821063
C         6.70771944450432    5.18607286407218    3.56562023562261
C         7.83502783838385    5.86583589769760    3.99497169435546
C         8.88900645739646    5.18959200884086    4.58700217341132
C         8.83355279787822    3.81699494028646    4.76189249754604
C         7.72665825644020    3.09389183006843    4.34941063565671
C         3.60496892910020   -2.21464388714551    3.35373433497071
C         4.89935772996065   -2.63399996842221    3.69212433000706
C         5.09361227224958   -3.97780528830808    3.96448664647846
C         4.03841054941176   -4.87293880073872    3.90386806508254
C         2.76628989954297   -4.43960348075543    3.56829045379858
C         2.52402832375849   -3.10577693545652    3.28642897214391
C        -1.30272547279723    1.77553320885680    0.96949784774380
C        -2.10173541775443    0.62845319033426    0.87092273893286
C        -3.40822206194211    0.78423413314883    0.43779510418816
C        -3.90349080867082    2.03608606897436    0.11367121950653
C        -3.09830823324956    3.15858642201143    0.21577186636638
C        -1.78581757485499    3.05302130805273    0.64376388427957
C         1.08975248939976    1.69483152328730    1.75090444177445
C         2.63465251072146    3.83852536578997    1.76253695777432
C         4.59433932804559    2.60167930752335    2.96442142507029
C         3.18322345023944    0.21356658149459    2.82866154395395
C         5.55495096102800    5.88982587611198    2.92182667499841
C         7.63465347146381    1.61239552682935    4.52865900921362
C         6.01356102003204   -1.63889645372605    3.75353497717461
C         1.16573718407665   -2.60107305942783    2.91784202090392
C        -0.89045223443384    4.24587586092737    0.76146115340908
C        -1.53863897598444   -0.71040461501231    1.22559214176198
C         1.29892544915342    6.93164803044011    2.99401006127138
C         3.70330098522171    5.32470022551440   -1.12737660407111
C         2.50955726579657    6.20585627446730    0.90188969329137
C         1.91895299942829    7.22131784393445    1.66315518893397
C         1.91167909685639    8.50266828681555    1.13237476258261
C         2.47051524283193    8.76239240629150   -0.10648745441000
C         3.05279876925595    7.74291074411786   -0.84208702987518
C         3.08543510608886    6.44736825931235   -0.35489046206397
H         7.88684055070465    6.93584854594370    3.86454213517949
H         9.75861225700158    5.73665955328859    4.91583258774152
H         9.65893665023264    3.29915212745719    5.22559381436950
H         6.08101494378147   -4.32577561478456    4.22612669819895
H         4.20886829991291   -5.91622948508230    4.11881014357812
H         1.95098514085883   -5.14512325900939    3.52343275175330
H        -4.04323065507356   -0.08421075557432    0.35425026175418
H        -4.92381935652340    2.13819538239928   -0.22120989521271
H        -3.49333147782630    4.12979753342131   -0.03996395117218
H         1.46203352767336    9.30270521752839    1.70011738797205
H         2.45450073042720    9.76580306199368   -0.50214184006523
H         3.48805419856623    7.95461152072864   -1.80654560044412
H         4.63224541924952    5.68932422482658    3.46709344201332
H         0.83434098384066   -1.84696958385575    3.63247044915418
H         7.50861996759964    1.11841612462588    3.56541197369812
H         6.95552411151489   -2.12998049484879    3.97862217100010
H        -1.43642766257261    5.15812594592755    0.53890644163736
H        -1.19583539305976   -0.71805243136594    2.25989688622970
H         1.35036868751646    7.80816554148247    3.63442817676859
H         5.72251149769403    6.96267778357588    2.90054760437832
H         5.42010722266032    5.53935262678491    1.89809795435206
H         6.77488562178025    1.36034451994469    5.14981371775691
H         8.53206429424964    1.22695031480879    5.00319866659120
H         6.10850870611201   -1.11239425054360    2.80347180820430
H         5.81265449704816   -0.89762538645005    4.52699146815614
H         1.19059274336655   -2.13718416395495    1.93173552558570
H         0.44429777846799   -3.41249913725987    2.90523376509340
H        -0.05444813252283    4.16274165310642    0.06581658828623
H        -0.47737010072233    4.31534123321886    1.76838195742650
H        -2.28801775759694   -1.48625986116169    1.10108353155881
H        -0.68592941856094   -0.94397897750957    0.58793215443068
H         0.24680689393894    6.67414147227381    2.86606520890771
H         1.78979719030766    6.09858267435372    3.49418566776276
H         4.47401999471755    4.82392402694669   -0.54021330615871
H         2.95246015036256    4.57637831335778   -1.38388037467760
H         4.15050472821592    5.69347305802343   -2.04564866199310

