80
CSD_code = KOGMEY | q = 0 | S = 0 | Stoichiometry = C41H32NPRuS4 | MND = 6
Ru       10.33470725899132    6.45903966779214   13.81726280946086
S         8.29583072283764    6.04650536739701   12.55375810959255
S        11.32549311389963    4.74623577204630   12.56990070084804
S         9.56774414922843    4.78522102967834   15.27998494797975
S        12.27645025666872    6.48255703722647   15.32348271423976
P        10.86055476338178    8.05179059875386   12.24684981319352
N         9.52990154535887    7.85435190350949   15.01405236700585
C         8.76138034455126    4.77710520122022   11.48232963414663
C        10.02504113076002    4.18220511636509   11.47113431716861
C        10.33854749215490    3.18166497214893   10.56649743819360
C         9.39181747183874    2.73649909787077    9.66657216202484
C         8.12666138163638    3.31247869739526    9.66795791416425
C         7.81723827424543    4.31412041902450   10.55710094721669
C        11.35301265121996    3.36592582014219   13.71759644089033
C        10.62724255807128    3.39832746029946   14.89877760962520
C        10.69841990204819    2.33735507483376   15.78871304506291
C        11.50411972710454    1.25192419008185   15.49963734557276
C        12.23311853317493    1.21933993549627   14.32102124363506
C        12.16204646724032    2.27724059827118   13.43314315412814
C        10.32709911309346    5.26010084479876   16.82749127160985
C        11.52603854245235    5.97853860679886   16.79801493048384
C        12.13027403160027    6.27791403229046   18.02344075660633
C        11.53724643653775    5.90733978976474   19.20990872668362
C        10.32639703870690    5.22508992209219   19.21796270119467
C         9.72477866227783    4.89570452506774   18.01743772181006
C         9.98134253804805    9.62627872942753   12.51731127913114
C         8.60139423245045    9.56641522897120   12.71454068510313
C         7.88864134376536   10.71019540969370   13.01807765010949
C         8.54508283245157   11.92420786624582   13.14478440400131
C         9.91690435637581   11.98647510812802   12.97163139985335
C        10.63603837327770   10.84419416792967   12.66465472047047
C        10.36231005349788    7.53234843700810   10.56526362140144
C         9.18651700516478    7.91963609031969    9.93512259473471
C         8.84428240521727    7.36724025154493    8.71324032115787
C         9.66735867051695    6.43174240617792    8.11001549314083
C        10.85136785573982    6.05790152660466    8.72328077906598
C        11.19603600909671    6.60304414967159    9.94498512432852
C        12.55419016660985    8.59369816993993   11.84213296650701
C        12.76790289167686    9.41149262772431   10.73303035798934
C        14.04905693766938    9.80939159442790   10.40610889379201
C        15.12512411115459    9.39040545872087   11.17548521589208
C        14.91728060286405    8.56950801897727   12.27014371526542
C        13.63379475455157    8.16959042335174   12.60378289089296
C         8.28470644730922    7.73662515937507   15.48385201921676
C         7.72588932106309    8.63927437100270   16.36638439858109
C         8.47856859696467    9.72342347109055   16.79288465317102
C         9.76893674197236    9.85044687233608   16.30315087325552
C        10.25225721756007    8.90419155833584   15.42159090595323
H        11.33178178746756    2.75794558367881   10.57253107503741
H         9.63729042129593    1.95371255873100    8.96534419586072
H         7.38114606555863    2.97590169577839    8.96253516426266
H         6.84011793169559    4.77256679403204   10.56223003461457
H        10.13331565075607    2.37640811041289   16.70801589824025
H        11.56371750670965    0.43116901881346   16.19816379524893
H        12.86647528579102    0.37429886390727   14.09815555728173
H        12.74508883822926    2.27558656315198   12.52509671186426
H        13.06623734551195    6.81543706529168   18.01151362904584
H        12.01685603748471    6.15775056607020   20.14496830371464
H         9.85955595800377    4.94995617343886   20.15122393377817
H         8.78565000429190    4.36109120698418   17.99391728115831
H         8.09633725067695    8.61104041003706   12.64733896170446
H         6.81984144020426   10.65420582228187   13.16531517295599
H         7.98872829208817   12.81784613663797   13.38697544474551
H        10.43342617721913   12.92903654641861   13.08191577058310
H        11.70866132186364   10.90096650241340   12.54701302223270
H         8.53531638569411    8.64591276054079   10.39788904826682
H         7.92347105237202    7.66499539667702    8.23288596689302
H         9.38759691742523    5.99503660053999    7.16266717757543
H        11.50071584987557    5.33312854524582    8.25431509004678
H        12.11971869832746    6.31344553501588   10.43223255248396
H        11.92434946454016    9.72756985859577   10.13325506231392
H        14.21320946840758   10.44507622680778    9.54784312695798
H        16.12629846034902    9.70236330120797   10.91555224194037
H        15.75457193090737    8.23720841937998   12.86580937452953
H        13.46388782745442    7.52249223055358   13.45254570738589
H         7.70969149015544    6.89124470520701   15.12016152809264
H         6.71459848882722    8.49242266943061   16.71117625568338
H         8.07064462397103   10.44645114538223   17.48192596066331
H        10.39890131530457   10.67489787663347   16.59683741881799
H        11.26125567737059    8.97513233334755   15.02866575055374

