30
CSD_code = KOGNUP | q = 0 | S = 0 | Stoichiometry = C10H11Cl2MoNO5 | MND = 6
Mo        0.61441627167802   -0.01493945501424    2.54189023046124
Cl        1.50084903718238   -3.61216934863102    5.08144807629063
Cl       -1.79986450046098   -2.19310072301013    9.09887036236244
N        -1.38309394255014    0.57154051597599    3.41960533300267
O         1.40323221459828    0.92467774196747    3.64634423502939
O         1.53501034581034   -0.80929406493388    1.43668502859519
O         0.23020445731887   -1.46792335672414    3.68290850643021
O        -0.03541112137319    1.26385651888759    1.39205165795600
O        -1.13052042192694   -1.36427367792286    1.14861646434835
C        -0.23274882932463   -1.59080179409660    4.88935800798674
C         0.26079674433898   -2.61940765296823    5.73141858131798
C        -0.20727793001270   -2.79962334534565    7.01292392115801
C        -1.20940305621927   -1.95616968499342    7.49729709678351
C        -1.72540154886580   -0.94796326706039    6.71601694123403
C        -1.24653315138027   -0.74656586658816    5.41169588618845
C        -1.79650874655661    0.29762542116275    4.59703657167803
C        -1.99024287245478    1.62196425375610    2.65119418067110
C        -0.83362718462255    2.28279558409743    1.87861492826683
C        -0.97309997433219   -2.76820721232456    1.31941653946188
H        -0.53160751398331   -1.10195162981312    0.43348849996938
H         0.19753701040174   -3.58254514706815    7.63390646525631
H        -2.49678310270063   -0.30174907537675    7.10598634568971
H        -2.62825907445385    0.86400810813389    5.03178658537296
H        -2.66976120503019    1.15598393306019    1.92401316744530
H        -2.54389722857876    2.33787862274351    3.27208801707219
H        -0.24262642218329    2.91211318823673    2.56954778266256
H        -1.21894326730472    2.89731217144511    1.04937780909269
H         0.07348490687612   -3.02554802709430    1.50663010328609
H        -1.33146227263133   -3.29521672729712    0.42883162526491
H        -1.58095762125904   -3.06050600320303    2.17665104966462

