83
CSD_code = KOGQED | q = 0 | S = 0 | Stoichiometry = C36H26B2F2FeN10O6 | MND = 6
Fe        3.48809719776231    1.29137598529885    4.21110967407564
F         3.48961202572221   -1.55384221788534    0.98160836774400
F         3.48972160458091    4.13668220514337    7.44029894980437
B         3.48878416948736   -0.66667569992411    1.99151602686468
B         3.48906661801981    3.24939566793532    6.43049641562371
N         4.93940764018287    0.84267987051619    3.08969250561739
N         4.94018957470056    1.74177972782151    5.33090568380684
N         3.09962816009201   -0.55084758867058    4.31862680808431
N         2.41097642330396    1.25267823518704    5.75389916076895
N         2.40977412892832    1.32892216298977    2.66918802095399
N         3.09794894554736    3.13318018925156    4.10355038877019
N         7.28822944042778    0.42346740889242    2.99943967874123
N         9.23597590230988   -0.60907539406605    2.84921011720163
N         7.28868113516203    2.16360559168241    5.41838328033184
N         9.23561603674013    3.19805275570527    5.56608687414269
O         4.76749298308240    0.11074741471024    1.96870691569362
O         4.76871330024922    2.47390575889739    6.45186783958261
O         3.38318050452490   -1.38046446475477    3.29285601520368
O         2.34208097366829    2.31677455827076    6.58020423288717
O         2.34043553282272    0.26433605200937    1.84341348686258
O         3.38080943695479    3.96308632594322    5.12919424557939
C         6.14797881395631    0.95412250750349    3.57725592674906
C         6.14833612460741    1.63158985007033    4.84200157054301
C         2.27536593122726   -0.95544413337235    5.24712602529895
C         1.98278220165914    0.09620014309915    6.18420799572968
C         1.98191734835334    2.48517306190472    2.23793180252790
C         2.27487431247146    3.53761781952773    3.17389122326541
C         1.66252553624797   -2.28488752300086    5.30435834835728
C         2.39213626495340   -3.42951878571541    4.98864667267105
H         3.42972169390498   -3.34206497774496    4.70974470328474
C         1.78783145495549   -4.67215258345375    5.03769303142860
H         2.36125912156667   -5.55375274480797    4.79473610075371
C         0.45415683555861   -4.78733042819886    5.39179590507039
H        -0.01522565281032   -5.75893536276206    5.42628012013629
C        -0.27990453074340   -3.65131069189109    5.69524145115793
H        -1.32278414616493   -3.73588110488550    5.96167139254341
C         0.31662695713116   -2.40665300579123    5.65501288304805
H        -0.26075050424201   -1.52215174449769    5.87696725280043
C         1.34780650013688   -0.13330347929709    7.48456971573505
C         1.67827372781379   -1.27023081721037    8.22411117515961
H         2.40724507346870   -1.96666287566597    7.83884788095686
C         1.09181363524896   -1.49238051696766    9.45443837412956
H         1.35720785375754   -2.37153374636169   10.02214529519924
C         0.16933865219283   -0.59039263974797    9.96108020231024
H        -0.28883754851042   -0.76866383064421   10.92222693721126
C        -0.15717589876096    0.54268698250686    9.23510747241965
H        -0.87028050267869    1.25083820964880    9.62905602053149
C         0.42926019605541    0.77657495354948    8.00514901264774
H         0.17597688450511    1.66071339108517    7.44267021768907
C         1.34652003363083    2.71283016684682    0.93742095701595
C         1.67865327897943    3.84710120797647    0.19462312683299
H         2.40904482864839    4.54329824521059    0.57763584800459
C         1.09193585390081    4.06684327100157   -1.03603142596465
H         1.35856542410116    4.94394259333925   -1.60631870035056
C         0.16754448629663    3.16512837419985   -1.53964926091552
H        -0.29077114607563    3.34150392183092   -2.50107700906285
C        -0.16073661909429    2.03471672764438   -0.81031338568656
H        -0.87531002069788    1.32673423403182   -1.20190917118804
C         0.42597815079995    1.80320924454013    0.41994998955097
H         0.17142537283204    0.92111562318785    0.98507102250046
C         1.66485733238991    4.86821384351920    3.11319392804118
C         2.39713957009801    6.01177097014830    3.42667126614662
H         3.43394898942310    5.92221129378109    3.70780246186814
C         1.79658352846354    7.25599347484538    3.37228191356691
H         2.37215665894072    8.13674906518381    3.61322291408163
C         0.46397119333743    7.37387211350237    3.01505423991480
H        -0.00241701440932    8.34675315970577    2.97609368890231
C        -0.27287027576587    6.23895621707866    2.71422321360273
H        -1.31499960057052    6.32566791717393    2.44557263340581
C         0.31993513547789    4.99268970464971    2.75981527657627
H        -0.25964527481114    4.10914326865667    2.53983648390459
C         8.35190002545126   -0.14018591480077    3.66611680935831
H         8.40924966795929   -0.19557568743358    4.73397569084881
C         8.76703320125348   -0.35670623638291    1.59357186094271
H         9.33119962284346   -0.64336447845990    0.73002558661238
C         7.56060137837361    0.26712756927191    1.65785272564248
H         6.88331285574669    0.60030866101918    0.90126290940205
C         8.35099105408728    2.72820405205669    4.75033207485607
H         8.40698315751736    2.78353536535872    3.68239723372280
C         8.76844887281300    2.94541147250648    6.82233883191673
H         9.33341354224995    3.23271934296017    7.68514618772959
C         7.56255019120569    2.32038788246843    6.75961383148938
H         6.88650847447087    1.98666286154711    7.51707684903844

