88
CSD_code = KOGVOS | q = 0 | S = 0 | Stoichiometry = C42H41FeOP3 | MND = 6
Fe        8.37031763575050   11.71081291947915    4.53951198163915
P         7.90053272836442    9.76225627192385    5.31571308877799
O         9.05561931095290   14.49053412670196    4.17737124887271
C         7.76105673298445    8.48231514689130    3.99051895644225
H         8.77509717814436    8.10983285779746    3.79594838810939
H         7.14323416411326    7.64898321872248    4.33936977774866
P         6.52781083496518   11.67479197817040    3.47443334866507
C         8.26028090826661    9.76513314942411    1.86470296411031
H         7.76974379159240   10.44809919549171    1.15896364629018
H         8.84488906877505    9.03388738600694    1.29659487205806
P         9.38380695926983   10.78845670021182    2.91111242006915
C         5.99601940405198    9.97665023253211    2.98130251671266
H         5.42449544690409    9.55764045847480    3.81935106901740
H         5.34081813517747   10.04288808041626    2.10531992497322
C         7.17841188282194    9.04192933043458    2.68332732805865
C         6.65627204052964    7.86368653220821    1.84767115308338
H         7.43573807166859    7.11522564662215    1.71145698331556
H         6.33301314383362    8.20443650977120    0.86496392020972
H         5.80875751077526    7.38934540954187    2.34062831704841
C         8.96611676717425    8.94576665606090    6.54723349848809
C         9.27408215681793    9.75997934001133    7.63486147935949
H         8.91217031426186   10.78099047731800    7.62480795169150
C        10.04536563069910    9.27814135881019    8.67333144034941
H        10.28434726358214    9.91456749573768    9.51291399524310
C        10.51648984807332    7.97446463817091    8.63284675144303
H        11.12403724340944    7.59292750010348    9.44069573877953
C        10.21113279790375    7.16160946547741    7.55511073609783
H        10.58082602508747    6.14634378574065    7.52280455351944
C         9.43424666453877    7.63909602739393    6.51268978173167
H         9.21304105375268    6.98846089832865    5.67885212814049
C         6.34767353077664    9.51410675014720    6.26155037313931
C         5.64152203163897   10.61942702429862    6.71473955637238
H         6.02179793513015   11.60664490916471    6.49272397027630
C         4.47920345199853   10.46101268905705    7.44876248251492
H         3.93487344913070   11.33196127710176    7.78380744155538
C         4.01951664161035    9.19121502974219    7.74942496546984
H         3.10953026117287    9.06192787077212    8.31706829890930
C         4.74206975077278    8.08161140483911    7.33782216518672
H         4.40074514171231    7.08876178400196    7.59487900765053
C         5.90371300708483    8.23901135935184    6.60667449793686
H         6.47297922856449    7.36484160957066    6.32005745822958
C         5.00606968875175   12.36359046367029    4.20947130169839
C         5.16176274150076   13.67274605492281    4.66093061560000
H         6.13652618576560   14.13707481377328    4.56574660340947
C         4.10496865584869   14.34867272218877    5.23639101115254
H         4.23502867270207   15.36264897121841    5.58547251362267
C         2.87687438049373   13.71860118891901    5.36939309608942
H         2.04714502521340   14.24017427831335    5.82393567591805
C         2.71518138354226   12.41927348179444    4.92166280891107
H         1.75865655675289   11.92680913429013    5.02627495934344
C         3.77228996684940   11.73944375847544    4.33997548721814
H         3.62077873019963   10.72438493958629    4.00154497512140
C         6.36307674216112   12.56348690717045    1.87767574256274
C         5.15620694831722   12.53982683412775    1.18057450558198
H         4.30640892149073   12.00851968058767    1.58891125834539
C         5.03530214178941   13.20803547860960   -0.02213546639751
H         4.09694632325121   13.18382860299153   -0.55780715368900
C         6.11110897515607   13.91369840996113   -0.54012752971752
H         6.01223310245385   14.43301108550873   -1.48210836238054
C         7.30476372226264   13.96048621377738    0.15803354792223
H         8.14536964641433   14.51643371414490   -0.23114692583986
C         7.42535166869133   13.29280207660930    1.36432375189794
H         8.35286748162712   13.33372342415711    1.91704490316945
C        10.28391452615727   11.78778757921157    1.67968099727478
C        10.14206942420728   11.74895561502898    0.29873300180446
H         9.42531505214121   11.08942420489876   -0.16911660697167
C        10.91682063960070   12.57914743979480   -0.49397953921179
H        10.79873574135160   12.55220949341876   -1.56814925047965
C        11.83515205337473   13.44145278616591    0.07945159597727
H        12.43187201976368   14.08818959853478   -0.54713131614411
C        11.98749090420257   13.47588863272772    1.45737397467496
H        12.70388057456157   14.14728757859545    1.90747030816430
C        11.21516156696179   12.65260537282682    2.25161303521269
H        11.30464445280373   12.66899180234865    3.33201498772322
C        10.77388578090302    9.63019048920462    3.21594382222226
C        11.35860627441463    8.91518948237157    2.17231304143588
H        11.00102719690983    9.03970849605613    1.15842945940108
C        12.41262551063169    8.05838977504202    2.42378152836538
H        12.85842075709140    7.50297779766448    1.61070009031722
C         8.76588120980933   13.37742232773821    4.23104740125431
C        12.90398456445660    7.91522462529613    3.71274497335291
H        13.72518798584651    7.23989531036602    3.90405131458329
C        12.35319311684714    8.65256535354693    4.74605467040699
H        12.74261662028548    8.56155880833687    5.74967525943153
C        11.29851950695494    9.51267202180243    4.49523387584813
H        10.87392094587478   10.11172101084695    5.28878269823608
H         7.79375815209691   12.29366776746518    5.73342527771981
H         9.59480261768570   11.75862989388998    5.31109790257403

