43
CSD_code = KOGWAG | q = 0 | S = 0 | Stoichiometry = C20H18N2O2Pt | MND = 4
Pt       15.42074718795279    0.54940566500907    1.58045272613670
O        17.11290462311189   -0.13702774003359    0.47447326615697
O        14.25930287790451   -0.24735909418497    0.10527738203189
N        15.63647271799141    1.65116488117645    4.19090249711074
N        17.65732398183613    1.66190058935586    3.43394943673874
C        16.38427689089183    1.35775242187146    3.09952353395026
C        16.42755977149814    2.11817238509376    5.20001716958522
C        17.69942240330632    2.11761247662535    4.72964499009122
C        14.24640996951865    1.48567348548671    4.05425243918526
C        13.87980720664567    1.02348337380516    2.77542741077454
C        12.52228937090068    0.85361552321298    2.53999331814761
C        11.58453167519214    1.13483467434351    3.52511822205656
C        11.98107225729106    1.58510049598200    4.77234212665091
C        13.32733698067595    1.76647871965058    5.04843048205060
C        18.75520957538312    1.60150544521850    2.55569446128851
C        18.61613422692734    2.09828382510992    1.26518254083850
C        19.68592796340727    2.03750411387786    0.39249752328550
C        20.89303916528529    1.49606800618409    0.80506751905549
C        21.03169382578702    1.01513519537840    2.09611385353759
C        19.96521771649600    1.06617569633490    2.97617076987830
C        18.42370439497230   -1.16075881908425   -1.20689297134947
C        17.08526702798491   -0.75111050953093   -0.62117001295232
C        15.94359266114562   -1.09110262179544   -1.35188931560412
C        14.63330118101913   -0.82500992977716   -0.95191813374928
C        13.52953983736619   -1.28780192294799   -1.88423977717740
H        16.05005174827743    2.41171028241813    6.15742333833026
H        18.61236799319019    2.42626439591315    5.19584028404146
H        12.19129511335184    0.49943827109696    1.57496352076894
H        10.53249745544056    0.99840202009436    3.31843810448444
H        11.24523215564206    1.79630225446443    5.53413604803221
H        13.64403439832297    2.11628353268395    6.02032285787542
H        17.66807054158453    2.51976407824115    0.96056294722025
H        19.57795348343118    2.41369682173106   -0.61354637735299
H        21.72630170211433    1.44763982690624    0.11984854240654
H        21.97082237438492    0.59042912936852    2.41812977935459
H        20.06225221022396    0.67373303781209    3.97765994209034
H        19.22668842450882   -0.80083101196102   -0.56800724927244
H        18.53866670952159   -0.74518674153483   -2.20569046005243
H        18.47938675890139   -2.24512898939630   -1.28010948296175
H        16.08398289666334   -1.61010570894053   -2.28799656093048
H        13.57594887934913   -2.36760932416086   -2.00932034239619
H        13.64770019314392   -0.82536852626095   -2.86189102899779
H        12.56196147143074   -1.01522968483008   -1.47078532036231

