42
CSD_code = KOGWEK | q = 0 | S = 0 | Stoichiometry = C19H18N2O2Pt | MND = 4
Pt        4.50268236458648    2.12923155963215   11.31713167857661
O         5.03046850451280    3.57238534052402   12.82779666758492
O         5.36022995815747    0.73575253727683   12.53341353407986
N         3.16598842149802    2.74634684931630    8.86960691304312
N         3.39928928849000    4.64552498590837    9.92740667363247
C         3.64733424565205    3.32444694530240   10.00894718091182
C         2.76118174291439    4.92650183907920    8.74259401957189
C         2.30987754175069    6.12770050579477    8.21884159961156
C         1.69816813045738    6.09092028326759    6.98078381977830
C         1.54586935948586    4.89095122652959    6.29155736567706
C         1.99261726412602    3.68913731860428    6.80845497628244
C         2.60836404379986    3.70421303611755    8.05375414675424
C         3.33414126579187    1.34859688543325    8.78035304731478
C         3.98984787634344    0.81195827614132    9.90473321514454
C         4.20610654040190   -0.55752873248257    9.92904655256026
C         3.78862394668692   -1.36562591392170    8.87999569487095
C         3.14729586549821   -0.81294575566406    7.78734983765506
C         2.91470850355759    0.55316211982988    7.72935509890281
C         3.74632780143031    5.63497184507968   10.90935582463661
C         5.90971004433780    4.54088226429322   14.79269546357505
C         5.63301779943123    3.33948561978029   13.91078339742650
C         6.07714188849411    2.09435347397438   14.35274701035920
C         5.91616471451374    0.89540990378481   13.65205380615373
C         6.46552518874860   -0.35496537816219   14.31111189691069
H         2.43215983064104    7.05420220548540    8.75704833743171
H         1.33317408116192    7.00537439975213    6.53930752214888
H         1.06521995708715    4.89871146601168    5.32527414748098
H         1.85871065080877    2.78147351512784    6.24635153299577
H         4.70629109682151   -1.00078370370286   10.77738166591075
H         3.96420615620925   -2.43122848230095    8.91688552691600
H         2.82209072708923   -1.44164668394150    6.97155056654954
H         2.41235532930264    0.96701823415896    6.87110316876165
H         4.23275348749229    5.13535881593898   11.74520816994534
H         2.84811508683062    6.14658089151596   11.25989868950755
H         4.42797811784654    6.36946758497209   10.47614028302192
H         6.80943407249980    5.04096746465238   14.43551832705686
H         6.06018024995270    4.24893404761180   15.82709096364921
H         5.08422441065142    5.24611583793256   14.72502546623918
H         6.58237675376702    2.04724345052314   15.30504626834708
H         5.94954756783738   -0.53478017946872   15.25227378085879
H         7.52602837536657   -0.23384802924484   14.52077316829261
H         6.32147174796676   -1.20932787046193   13.65465299387370

