48
CSD_code = KOHBIU | q = 0 | S = 0 | Stoichiometry = C23H20N2O2Pt | MND = 4
Pt        5.59553229481936    8.42934000085346   10.59366399131211
O         6.63597827600611    6.90791257847143    9.46836038138490
O         5.77739684119270    7.18324497209280   12.19868125849403
N         4.67267195036723   10.91080016178980    9.51615265265434
N         5.63932674932045    9.85139514480814    7.86575982755244
C         5.32782383203129    9.76157116282987    9.17248693289306
C         5.19154517981795   11.04937562185169    7.36088358851140
C         5.27826183479279   11.58344634215271    6.08496640315684
C         4.72399510814539   12.83225068772551    5.88042422568318
C         4.10482040176044   13.52083069046305    6.91973386511891
C         4.01510764366620   12.99381585898899    8.19482174818354
C         4.56615422308357   11.73898993192355    8.42089373818513
C         4.26189260087874   11.00462125951951   10.85900755369783
C         4.62676376337718    9.84741770153758   11.61264261200638
C         4.28361617501215    9.81255366262259   12.93690002052503
C         3.58984425258941   10.87846828630990   13.55649726912221
C         3.23364520061654   10.84765586320683   14.91933149261726
C         2.56186556880671   11.89191441349999   15.49344677786144
C         2.21566397629380   13.01564595346722   14.72932087693764
C         2.54744061433372   13.07585324216547   13.40374973325346
C         3.23915693412782   12.01583152719807   12.78490615759861
C         3.59163993605421   12.05576209575565   11.41784062329893
C         6.33386975295428    8.86189031505892    7.08994319910550
C         7.75501417422193    4.89076859655432    8.92762800579565
C         7.05166368225697    5.80477726278444    9.91248854712464
C         6.92919761108166    5.34324367022393   11.22283371090769
C         6.31442330053873    6.04522875623706   12.26207331025030
C         6.28509185120645    5.36515290723471   13.61719691003969
H         5.75963580959425   11.04495043387551    5.28416123219693
H         4.77105948785354   13.28226895384300    4.90084087809546
H         3.68231816334590   14.49469622532102    6.72527594955497
H         3.52937207957930   13.55570069167621    8.97319649883948
H         4.54294352917229    8.95365852220018   13.53900093063324
H         3.50225041482320    9.97960709426107   15.50436809243134
H         2.29263999677543   11.85933877402377   16.53939780856002
H         1.68508367172746   13.83274405628150   15.19646578485323
H         2.28203951370617   13.94088864609293   12.81165965170307
H         3.31439255880325   12.92948205947243   10.85116191364859
H         6.56302703453649    8.01650711587312    7.73601479407413
H         7.26032234033024    9.28021350086818    6.69202730397728
H         5.70771050324789    8.52975142629045    6.25983344006655
H         7.77581614405832    5.34833804872740    7.94138639565947
H         7.23625776975306    3.93622682734366    8.87053477176561
H         8.77477501460487    4.70484006050743    9.25829857626168
H         7.33982781243313    4.37149905062306   11.45116124625707
H         5.81985588571257    6.02212810505514   14.34805585434561
H         7.29677548444671    5.12533304462369   13.93806465536217
H         5.71749305614215    4.43846869571274   13.55455880843743

