52
CSD_code = KOHBIS | q = 1 | S = 0 | Stoichiometry = C18H27ClN3P2W(1+) | MND = 7
W         1.70727811050369    2.08559036282724    2.06586467230427
Cl        1.53300579255445    2.05958572037317   -0.31602609848589
P        -0.12180134989882    3.78226211184329    2.25386254892599
P         3.57815483669819    0.65166382195048    1.10338884640100
N         0.07154865442606    0.72257408600967    1.82736767012735
N         3.08340948126594    2.00183360058890    3.71968248532203
N         3.03324237777302    3.68862746494850    1.75951979060581
C         0.89810880832356    0.15090486963783    2.50956418644655
C         0.95175182146585   -1.19250063436611    3.14591406818765
C         2.96265575152528    1.20320759359359    4.78742838293972
C         3.85992543617060    1.18527609795432    5.83241579865012
C         4.96084507092452    2.03874667535672    5.78814527143856
C         5.07991360740921    2.89665274801519    4.71635732554478
C         4.12648721322986    2.87142008657395    3.69179646251916
C         4.10549378955527    3.81574884968300    2.58767116545594
C         5.04836980656184    4.83315643714558    2.40784630502926
C         4.88736414316090    5.74478497818348    1.38563288259585
C         3.76413467662292    5.63243971540688    0.56720242150329
C         2.87888304630673    4.60051982287732    0.78551862562776
C        -0.17197854874031    5.61578893606631    2.47689970280585
C        -1.85255897841464    3.28107125631069    2.62554512008156
C         0.82590904231875    3.10884359556920    3.59177745612754
C         3.03801153474238   -0.77739054236507    0.09969278849925
C         4.74644958102355    1.48863799141469   -0.03839583770991
C         4.78495617820248   -0.17981984563112    2.22368615911474
H         1.96642228549860   -1.50825499815693    3.38319994183904
H         0.36784607579066   -1.16239774259300    4.06698812237778
H         0.48511299371897   -1.92396808285929    2.48563800304464
H         2.08886904282029    0.56679234211748    4.79940465596567
H         3.70868644448152    0.51853754592483    6.66512358304400
H         5.69170228397018    2.04165090600839    6.58043483114961
H         5.90391178357116    3.58879166895742    4.67112428996073
H         5.89996597068591    4.90557974290447    3.06333900813898
H         5.60915264825263    6.52988829455105    1.22952901676166
H         3.58795892193009    6.33258500546932   -0.23249180497471
H         2.00917482856868    4.47658993684925    0.15027844259116
H         0.83808021130748    6.02218749091000    2.45684529500969
H        -0.75357673351651    6.06707648653000    1.67596928410397
H        -0.63927185389947    5.84440530866875    3.43403736379763
H        -2.14707313789064    3.64164384425184    3.61088061291781
H        -2.51658545039726    3.69391984258494    1.86824957814725
H        -1.89878325293442    2.19277062887020    2.59053791904270
H         0.90376765537187    3.63976093943420    4.54079951137292
H         2.37007730778259   -0.44180159006307   -0.69250233371156
H         3.91192780786546   -1.25939578393757   -0.34021057989448
H         2.50887229983481   -1.49347923777167    0.72749640159827
H         5.44744275068393    0.75314077889566   -0.43300203912740
H         5.30426504352914    2.26318541789590    0.48907860527414
H         4.19108322221615    1.93932722172742   -0.85981571073419
H         4.26523125478657   -0.78444445720433    2.96457483950347
H         5.43813542724641   -0.82589083955962    1.63854897918172
H         5.39544428503289    0.55697352964494    2.74328598343821

