120
CSD_code = KOHDER | q = 1 | S = 0 | Stoichiometry = C40H75BBrP2Pt(1+) | MND = 3
Pt        3.99782085387528    2.61113249499187    4.41363306457912
Br        1.67801233352631    0.49757774903745    3.31961714682403
B         3.17816362447282    1.53820956677148    2.91112931301380
C         3.77339701924417    1.51528802549017    1.42764388895004
C         2.66276362934858    1.63646644987214    0.36587270099221
H         3.10434994537215    1.58884129139292   -0.62726179666385
H         2.12901243542997    2.57853865998004    0.45103515776829
H         1.94385991369265    0.82479809836158    0.45274486658988
C         4.44989756946592    0.14526458672427    1.20044766490413
H         4.83238298972474    0.09469283697969    0.18333300288247
H         3.74263338728792   -0.67061477665019    1.33488144195739
H         5.28019199837015   -0.00086647552743    1.88659565959173
C         4.81323752644339    2.61812954557041    1.17570179107143
H         5.26788625930768    2.49747198809232    0.19516649735017
H         5.60126061070780    2.57560594225323    1.92632840238885
H         4.35004202021531    3.60179962302757    1.21329971083880
P         2.31942157818931    4.22212470039625    4.55857774315611
C         3.24737770423996    5.83033499658798    4.70816117272194
H         3.78107157022736    5.73943244418969    5.66552699082382
C         4.31223197016051    5.93279455452774    3.61190087142961
H         4.88114409626295    4.99343190120705    3.54809760711324
H         3.84128000589641    6.09813002922858    2.64221909293294
C         5.25121354866980    7.09726124315637    3.91374251669840
H         5.77356273690670    6.91352528612293    4.85627070596674
H         6.00233854367956    7.18142342095272    3.12690848386589
C         4.45830449369261    8.39786961122631    4.01757451535328
H         3.99924368410227    8.61884167405651    3.05162116465100
H         5.12992032854042    9.22151144275922    4.26173523963081
C         3.37005752712268    8.28691887056566    5.08256309189252
H         3.83130288516500    8.13967196680421    6.06230562113951
H         2.79606793886199    9.21356567954422    5.12293449635267
C         2.43207605082426    7.11810465643252    4.77764159777855
H         1.66713521703358    7.04777629507017    5.55411467982988
H         1.94027331365187    7.30699554133295    3.82280733167231
C         0.88021853459070    4.38531440487766    3.39039965845374
H         0.53153096139910    3.34933652540125    3.26475903212652
C         1.33791519516093    4.88585977919837    2.02055145230033
H         1.61153497789018    5.94051487478285    2.08122650689715
H         2.22044046411591    4.32594181501622    1.69749800209019
C         0.20318788144017    4.73549346301823    1.00997584043890
H        -0.06683881658197    3.68132911851894    0.91298581141918
H         0.52956942763154    5.09082055181508    0.03105875793615
C        -1.01559814013861    5.52803574093115    1.47340194630428
H        -0.76991407750343    6.59209299123199    1.49873063740310
H        -1.83437041068907    5.39339911136050    0.76629110544975
C        -1.45318013795080    5.07303446517311    2.86244260794060
H        -1.77023585409662    4.02862466532452    2.81965582228560
H        -2.30561366603371    5.66695909079141    3.19485328516893
C        -0.31125981556382    5.21693790374246    3.86990512180707
H        -0.65793233872215    4.88589417377184    4.84897269225502
H        -0.03778448469956    6.26884845698321    3.94522927424420
C         1.54466292323673    3.95394434298836    6.22730744641700
H         0.93734052867724    4.82679033462319    6.49344122442273
C         0.67355195224195    2.69489453497539    6.18534578681893
H         1.29420130254702    1.84623940613099    5.88446563082182
H        -0.12835463525368    2.79439390759331    5.45398030053667
C         0.07134966538845    2.39911422373514    7.55566504310934
H        -0.57171781237634    3.22749849624102    7.86060894323952
H        -0.54550169324601    1.50231566745251    7.49190403541504
C         1.17420732811004    2.20340016229766    8.58916202436266
H         0.73930044838362    2.01424004882171    9.57081677529224
H         1.77599808378845    1.33350257413262    8.31643547821200
C         2.05811190484847    3.44405955837650    8.64630964289528
H         2.86700604849427    3.29724401346738    9.36553734580482
H         1.46525431789925    4.29574072944402    8.98706758676592
C         2.64483825362301    3.76217163590907    7.27381657916083
H         3.28423518039641    2.92570861417117    6.95401564847132
H         3.26028902883523    4.66074332705017    7.35905489721201
P         5.78654287381052    1.28145513927686    5.11745382187844
C         7.27292097951296    0.95806366716153    4.04278892902965
H         6.83151961918430    0.53227696357145    3.13038447742220
C         8.31263310504692   -0.04088810282857    4.55325046610083
H         8.85454772153926    0.36832052701860    5.40455274454781
H         7.84497859138346   -0.97378266134281    4.86979485084860
C         9.30923387328468   -0.33013776323047    3.42935771493309
H         8.78654619346588   -0.78939398139169    2.58692391539358
H        10.05800864191460   -1.04034854820753    3.78267296687363
C         9.99222475813794    0.95360518631383    2.96560400260546
H        10.58161070308058    1.36748953126716    3.78690978351619
H        10.67642659443240    0.73175146426579    2.14623293002416
C         8.96025800958304    1.98305195106504    2.51317223712570
H         9.45985888592727    2.90931459912453    2.22523311782619
H         8.42509692471618    1.60622097396573    1.63877384220252
C         7.96737873932345    2.26049446631254    3.63923995692023
H         7.23137151540233    3.00409372469535    3.31677882392667
H         8.51317682592586    2.67107591710425    4.49030310588481
C         6.30277800382528    2.23363752215814    6.63783405122632
H         5.49503746799784    2.04222532455047    7.35883228958960
C         7.61091185633150    1.84344513794103    7.31938654993356
H         7.63093355124566    0.77237183550873    7.53033300726599
H         8.45860118718302    2.08638527252758    6.67747504180594
C         7.75192211896789    2.62918342405487    8.62368047397666
H         8.68853483031145    2.35874008247788    9.11281147358197
H         6.93576412443511    2.36596997562866    9.30084954071427
C         7.72604617966478    4.13113177036612    8.35134656405106
H         7.80952855913409    4.67869854891016    9.29067574736075
H         8.58290036484153    4.40322814564584    7.73090337966184
C         6.43640949794513    4.52767948858917    7.63662145887221
H         6.44649236847853    5.59864595851542    7.42229101118079
H         5.58555694415464    4.32378758517242    8.29214925519099
C         6.29071657996608    3.73617498569861    6.34040764069950
H         7.10960554042884    3.99943416029274    5.66874185024864
H         5.34682739952777    4.00655468240988    5.83803583856471
C         5.25994467873734   -0.37079894905402    5.78368925587816
H         6.05878784980462   -0.77200197014502    6.41857481657728
C         3.98950704661845   -0.18231100688633    6.61962249129931
H         4.19122246716402    0.45082132567535    7.48664298870082
H         3.23009683268447    0.30922761847989    5.99885331756724
C         3.43982162644414   -1.51754525789851    7.11350419417013
H         4.16632280016353   -1.97959303701180    7.78592732591543
H         2.52324044213097   -1.34524105966781    7.68001669829684
C         3.16189581312371   -2.45394881857871    5.94430710121880
H         2.39437535648690   -2.01953639270154    5.30027503984419
H         2.78910605382015   -3.40856466307552    6.31519155256998
C         4.44019986233999   -2.66976181896926    5.14349109767179
H         4.24572724839385   -3.33025332223037    4.29775548885801
H         5.19244891999444   -3.14758611159826    5.77526563422179
C         4.97787905589731   -1.33660123181398    4.63014654692048
H         4.23273407686017   -0.88661090607319    3.96994793416689
H         5.88141090369675   -1.51493998276975    4.04484227566170

