55
CSD_code = KOHLUP | q = 0 | S = 0 | Stoichiometry = C18H31BrNiO2P2 | MND = 4
Ni        6.78986449852052   10.76422908801429    3.76442725518032
Br        4.60879963234160   10.81985732145466    3.32532023211239
P         7.12303027724713    8.74531018394057    3.17730675937422
P         6.96956777661009   12.77021455919981    4.45415634032495
O         8.72269682559046    8.46244035957259    3.37969547340188
O         8.53497079669042   12.97182703971225    4.88865430133263
C         9.38190929293222    9.56363077437936    3.90246771164354
C         8.63617934616203   10.71681674059904    4.13605415420530
C        10.73931494721327    9.51702893050487    4.17646088623589
H        11.29181144449975    8.60961544230867    3.98941280154630
C        11.35982997061780   10.64564643162997    4.68742579688843
H        12.41707034139355   10.61791787891890    4.90173432615799
C        10.64702920249976   11.80920997810144    4.92818980999681
H        11.12819198156264   12.68954857445354    5.32458393188219
C         9.28940168759573   11.83359135148569    4.65241065969599
C         6.89668696270059    8.04751796119887    1.48064535485327
H         7.52863565763428    7.15185823738274    1.43335360485553
C         6.34655202384752    7.54059677775712    4.35463238377305
H         5.27601811099503    7.52574345815287    4.12377124156841
C         6.76881075903121   13.99971911008571    3.08001522152885
H         5.69449678122054   14.06832400152396    2.87818498418813
C         6.14003763459642   13.49485465669267    5.93855605473087
H         6.74650538229035   14.36007377706481    6.23413221459472
C         7.42085766702063    9.09410989274209    0.50001744248926
H         7.40286151526844    8.71447791240975   -0.51986668175596
H         8.44585537415531    9.37467283830869    0.74513737143599
H         6.79449388532713    9.98628033490931    0.54256434207813
C         5.44163742762262    7.70401373737153    1.19295941513472
H         4.80226986669344    8.56725389222940    1.36931197456897
H         5.09360484152058    6.88545822574082    1.81844748096306
H         5.33225153620038    7.40560309079136    0.15157662586473
C         6.94019942857807    6.14461992325458    4.23420471883021
H         8.02125646833954    6.18208971914704    4.35700386763847
H         6.71721045150163    5.70112687738832    3.26650378378602
H         6.52906072287917    5.49848201132405    5.00834279491848
C         6.53965062742175    8.12685126788857    5.75244246492959
H         5.99724300616608    7.55035243842576    6.49946698986055
H         6.16675236525766    9.15877143389967    5.78086914724333
H         7.59643732908830    8.13603695963455    6.02135780299180
C         7.46008794908985   13.39084529474557    1.86088780640730
H         7.28139918682316   13.98732522187963    0.96821370346342
H         7.07518524524277   12.37935607948598    1.67818538850584
H         8.53629114261391   13.32458559488393    2.02410982004660
C         7.33576617388210   15.36674063153740    3.43421024913989
H         8.37636202264852   15.27618263840777    3.74101058579104
H         6.77577990048269   15.83070758103712    4.24291954261143
H         7.28961633903088   16.02357614037289    2.56685910934219
C         6.19531690258894   12.43427800139175    7.03576627348345
H         5.80218542148133   12.82376555268819    7.97296326089137
H         7.22118331697335   12.10419949894787    7.20320732428796
H         5.59346596596316   11.57173184328168    6.74610651301764
C         4.70470307933091   13.90954585322015    5.64574876686349
H         4.14305881850345   13.07610694753243    5.22743174463943
H         4.66424946126982   14.73810863715589    4.94271884083542
H         4.21589522723245   14.22197129384684    6.56713002967012

