63
CSD_code = KOHRUV | q = 0 | S = 0 | Stoichiometry = C29H31ClNRh | MND = 8
Rh        5.70954982810984    7.70543864919192    9.21401248421246
Cl        4.85684846629649    9.01675369617135   10.91590268209852
N         6.93530895988537    9.44920456643894    8.84348948814675
C         7.18689084984553    6.01411672105671    9.72102527150846
C         6.03428903102636    5.83097726138901   10.48594951887776
C         4.89723592887588    5.75460201075047    9.57770039809022
C         5.40765617173608    5.74141699461458    8.23730811263692
C         6.80040115354350    6.01260862518539    8.31703068117179
C         8.60230163819710    6.03963806156161   10.21264815049726
C         5.92631599744603    5.66043400226299   11.96696499291496
C         3.52639503977159    5.33549778325210   10.01543509745615
C         4.63971262138211    5.41096027858501    6.99587402690621
C         7.77465023085740    5.93565576627398    7.18386073824578
C         4.51758231777498    8.79848675398783    8.03051387891437
C         3.15717824199348    8.57292226404691    7.86992284520199
C         2.39909428282771    9.37304271062751    7.03037449234893
C         2.98978204788790   10.42092132840809    6.34606715005013
C         4.33820372615563   10.67543729801140    6.51512893794489
C         5.09841583930469    9.87372425778808    7.35552023127250
C         6.58053384877781   10.12849555150769    7.57196854951644
C         7.42884216376873    9.49677602310137    6.47945499612943
C         6.86445896233015    8.85835050226908    5.38448946331500
C         7.66833181401873    8.27815183741563    4.41690546150883
C         9.04614038659267    8.32439106132042    4.53116131643022
C         9.61939741411827    8.96158134852022    5.61895542371961
C         8.81728529123040    9.54314719495820    6.58335495732218
C         6.80423602718246   11.63091370972351    7.69566811701783
C         7.51411512455480   12.36645905087920    6.75669409002336
C         7.66218775082786   13.73589601302565    6.90418358501157
C         7.09568857775873   14.38747911593810    7.98449536691093
C         6.36197374010433   13.66445494870568    8.91066797560315
C         6.21172110846882   12.29845986812344    8.76494855879968
H         6.63295327324729   10.03227004633704    9.63134418839075
H         7.94624559223163    9.33183467360434    8.91106782286095
H         9.24336580850888    6.60171670793032    9.53606557441380
H         8.98996837205144    5.02024847544915   10.27054271736400
H         8.66873901888394    6.48613712890867   11.20271793624509
H         6.89979300170061    5.74451641013196   12.44299435315237
H         5.50852314087765    4.67841059157172   12.19331722079934
H         5.26645533510280    6.41434677619933   12.39492934376287
H         3.18175348709546    5.94920639093464   10.84589280881831
H         3.55137493262223    4.29600295089613   10.34901811501211
H         2.81070336564944    5.41498655225384    9.20078387323977
H         3.60521719262998    5.73680110839340    7.07134493571422
H         4.64961997048241    4.33010417007408    6.84167191016225
H         5.08242924563353    5.88596781671150    6.12358770185443
H         7.29582194353537    6.16627309912460    6.23612335637436
H         8.18261526856406    4.92433062628937    7.12700865243809
H         8.60523086861370    6.62599706412037    7.31817741896984
H         2.67034828650898    7.77954062106334    8.42188865467947
H         1.34118746071456    9.18199850420189    6.91790888090327
H         2.40023492672777   11.04684715435960    5.69240636196702
H         4.80710457440613   11.50071887439084    5.99683101557062
H         5.79076314171727    8.81374130532941    5.28807551552352
H         7.21321796918072    7.78627617257840    3.56946583495404
H         9.67156431815333    7.87048030456484    3.77704126990368
H        10.69453871603328    9.00971005891190    5.71444623406668
H         9.28349497373853   10.06032400964182    7.41247569377961
H         7.94987531256442   11.87582573200630    5.89887231845942
H         8.22042061337262   14.29341131310494    6.16628735708053
H         7.21355561988978   15.45483761976393    8.09804644280849
H         5.89771237852844   14.16647413013162    9.74624152974626
H         5.60424730774540   11.75426835702078    9.47524792130797

