67
CSD_code = KOHROP | q = 0 | S = 0 | Stoichiometry = C35H16F9IrN6 | MND = 6
Ir      -13.04373944997412    9.19479699985147   10.03226537235125
N       -13.00249265418100    9.25980110192011   12.24421909234553
C       -14.03150583735366    9.37954906488513   13.07295147703639
H       -15.00988425962652    9.40716214373361   12.61224087668192
C       -13.88760281342281    9.47373351836314   14.44416838337423
H       -14.75513630231492    9.56170445781125   15.07730012884608
C       -12.60353255906014    9.46700052136580   14.97615172674853
H       -12.44904629695290    9.56019235616186   16.04037356291766
C       -11.52723840744551    9.34226921550983   14.12339352748745
H       -10.51823676968511    9.35318560084095   14.50212906558773
C       -11.75425933379599    9.21507736967915   12.74987981217077
C       -10.70689494124934    9.06353012048079   11.77811332617007
N       -11.01706609475418    9.06609161655983   10.45519134430246
N        -9.91688584959826    8.97800867260545    9.76218586573209
N        -8.88100471958118    8.92469326584570   10.53994977422382
C        -9.30515281060753    8.96702389091565   11.81583186644402
C        -8.38266505813186    8.83572365708095   12.93360449874314
C        -7.28045847646139    9.68081553759508   13.06869667174940
F        -7.11654264315892   10.69447046906528   12.21869813318522
C        -6.36492788887501    9.51618677883269   14.10177750664167
F        -5.32648478943729   10.34705498256052   14.22178619695628
C        -6.53547114988337    8.48782010937705   15.02414938866789
F        -5.66252958794547    8.32738031561184   16.02109585303213
C        -7.62621528085444    7.63081587950062   14.90679717462203
F        -7.79978751391768    6.64362505931957   15.79158753293171
C        -8.52878141814738    7.80933393957732   13.86801008444164
F        -9.56988913231005    6.96816506145720   13.76020949600135
N       -13.43828440459606    7.22660921700452   10.23242999079144
C       -12.50201022977388    6.28543075389490   10.32892586014968
H       -11.47541069922483    6.60893160900237   10.23357079112097
C       -12.79353832541228    4.94922687054103   10.52434571408896
H       -11.99651430552879    4.22785910088644   10.59771187794922
C       -14.12463979056906    4.57113792275702   10.61789257606451
H       -14.39604751298713    3.53816612867301   10.77117739281386
C       -15.10423290323227    5.53869760272355   10.50024021238422
H       -16.14054005705064    5.25607215299326   10.55698936260667
C       -14.74464348287999    6.87215169572194   10.30230438892504
C       -15.67022606675983    7.98725967635967   10.12894872093356
C       -17.06254415189138    7.91152515633898   10.18168888575517
F       -17.69173134623995    6.74356733324617   10.44393679535121
C       -17.86859145325806    9.01467575394540    9.98851284896567
H       -18.94143872454158    8.93015075324181   10.03453259312533
C       -17.24756117876833   10.22362969288226    9.73069868342394
F       -18.01562119482817   11.31411469388495    9.53917606917766
C       -15.87237244744034   10.34711992280005    9.67643926120543
H       -15.45231255633587   11.31995235114083    9.47016741634048
C       -15.05427898477750    9.23957914488435    9.87535944018410
N       -12.68482610530859   11.15703783164017    9.72630711681742
C       -12.64997407495852   12.07272428393643   10.69225969816480
H       -12.96328496874363   11.75294975521548   11.67730335724147
C       -12.24612400410918   13.37659573455255   10.48622657146417
H       -12.23488502270038   14.07640637164008   11.30601246785540
C       -11.85297679893253   13.75026440384585    9.20883649782020
H       -11.51653061201273   14.75538401416113    9.00789955155072
C       -11.90212730149714   12.81369705677599    8.19554977522963
H       -11.60242643802973   13.08947688039293    7.20022235552690
C       -12.32962927473352   11.51282216732955    8.46759367215506
C       -12.44314582955028   10.43420232618703    7.49598454747981
C       -12.19701896819960   10.53413628235457    6.12542764437060
F       -11.81960901084153   11.70433563546293    5.56833977350265
C       -12.33400896013332    9.45942831358455    5.27210186330033
H       -12.13643676721903    9.56153840956196    4.21809116964467
C       -12.73118019700803    8.25339611026915    5.82042986361735
F       -12.87706775572392    7.19169330968127    5.00595332381579
C       -12.98977232946052    8.10630377408180    7.17003733397653
H       -13.30147913118671    7.13707928376280    7.52751388661830
C       -12.84982459482409    9.18795881613942    8.02990290909713

