72
CSD_code = KOHTEG | q = 0 | S = 0 | Stoichiometry = C29H41OTa | MND = 13
Ta        8.11633199989744   -2.47891240960592   13.50975184913402
C        10.23701065729724   -2.67250055009385   14.29930001346711
O         6.57947037122229   -3.25068203122727   12.66793738217143
C         8.32080402908738   -4.67850334409432   12.78881281806810
C         6.83322046112303   -4.60333800859168   12.47692628522355
C         6.42158434891741   -5.09752299055746   11.10805947152812
C         6.89609238344497   -6.30958425026797   10.62196826483067
C         6.51811064406340   -6.75371801447587    9.36781856993633
C         5.66285725945303   -5.99336091339645    8.58743885438498
C         5.18078797691752   -4.78930125059350    9.07073656976645
C         5.55623311902159   -4.34514997543444   10.32596533945819
C         8.06576231492187    0.51621566004393   12.71846523729882
C         6.85650454003056    0.82132785230449   12.16563564419796
C         6.60779259707606   -0.07717849605567   11.05426472770073
C         7.66907316827957   -0.91797320271175   10.92393855527910
C         8.62824088204630   -0.64572957515726   12.01237483718806
C         8.80569867500563    1.26857064226999   13.78407786029477
C         5.92386031417341    1.92561680796971   12.53857641086414
C         5.36327071156617   -0.01717642157461   10.23154111203536
C         7.94659657833930   -1.91645035734367    9.84459188861399
C        10.09909166936559   -0.61218147378859   11.64013898535695
C         5.62117252258092   -2.07423097928841   15.20383235731506
C         7.01320629954567   -2.23955177438820   15.66160174009742
C         7.07283424983648   -3.62281534404316   16.15709188787674
C         5.87410432829656   -4.22884815085538   15.91194550380373
C         4.97195340439511   -3.26468970545845   15.32370540715293
C         5.06900685634700   -0.81433839215392   14.61726641419892
C         7.64511392196831   -1.13928133712830   16.48929245640090
C         8.23257740798826   -4.23378088755282   16.88380433827415
C         5.50078616641606   -5.64239261705689   16.21525515568622
C         3.58190990976354   -3.58606271439170   14.88618936999883
H        10.37510172199811   -3.50898864364361   14.98627191365644
H        10.59053289939608   -1.78720312138704   14.84041422003772
H        10.97222939046388   -2.84306701541152   13.50889694361504
H         8.92799292052462   -4.80753827442102   11.89105030880074
H         8.58357255551814   -5.43232931872531   13.52933252970999
H         6.25254589201095   -5.16402151487710   13.23468060948174
H         7.56101915883148   -6.90597248608483   11.23027400686539
H         6.89260019872490   -7.69686798910260    8.99670688251915
H         5.37170127350517   -6.34083286551973    7.60691938865297
H         4.50872685089132   -4.19490935122637    8.46816743615272
H         5.18871071972878   -3.40784148665617   10.71653644483743
H         8.12007083020279    1.78050494948749   14.45756103399924
H         9.44563922089964    2.02867705455951   13.33036801228882
H         9.44022348706197    0.60444263483720   14.37205222476763
H         4.90190328530999    1.55972967718189   12.62711179794554
H         5.93272223028835    2.69670354249573   11.76656866870202
H         6.21177463517487    2.38848143488846   13.47933903076050
H         5.24190201819849    0.97378731924993    9.79341078340703
H         4.48575720014369   -0.21660051964219   10.84873821104818
H         5.38983887270869   -0.74795151924827    9.42767880459846
H         8.34066334794070   -2.84602322486033   10.25700118996857
H         8.68435871219854   -1.51544610073256    9.14575436618656
H         7.04657966732263   -2.15313464489141    9.28359627343914
H        10.72440634525494   -0.38856527772331   12.50226188477632
H        10.26444547713383    0.16810378314160   10.89455793123317
H        10.41873088553897   -1.56107573990578   11.21116947833704
H         4.06123425406530   -0.62840658148767   14.99009513909222
H         5.01515696707413   -0.89771683495544   13.52940416838079
H         5.68998141849295    0.04406693849448   14.86411272785090
H         8.69478372857676   -1.34549943622020   16.69640318860436
H         7.12590935513025   -1.05975564211870   17.44651461327900
H         7.57386607280976   -0.17455502848237   15.98909795694555
H         9.06508057197624   -3.53917296210000   16.95306860149175
H         8.58077973045828   -5.13816580887894   16.38282419572476
H         7.93582595241455   -4.51079749322342   17.89662434429320
H         4.94026803036280   -6.07975859936838   15.38989236624453
H         4.87018364149266   -5.68659686190136   17.10509870401298
H         6.38649874568582   -6.24631042726963   16.39680401600758
H         2.98370627503931   -2.68155160172228   14.80418827285670
H         3.10020201443224   -4.26303031410653   15.58991757525083
H         3.59801367632221   -4.06788644371082   13.90662844691830

