42
CSD_code = KOHZIT | q = 0 | S = 0 | Stoichiometry = C14H17CdCl2N7O | MND = 5
Cd        2.08289747340631    4.62042763641946    8.98899166839243
O        -0.67483365519130    9.20287523307557    6.09860852464289
C         5.10394339562938    6.19267868120828   10.90997826626721
H         4.82071669549189    5.15457576306259   10.73714276291251
H         4.99492680948276    6.42747730929222   11.96736384273618
H         6.15128271294098    6.32674863396094   10.64059355198501
N         3.41398146833445    6.62828236994031    9.19545802526418
Cl        3.22459242354742    2.86663152043348   10.00582044518084
Cl        0.07379620399198    5.46628107371680    9.90288432154510
C         4.24907673566839    7.09055310854713   10.09830252144110
N         2.78946437979152    7.69670645749279    8.64677196496816
C         4.17811034881980    8.50647633239617   10.13381141951800
H         4.74169736071967    9.15895760295066   10.76906773935378
N         1.60861992379932    6.23780060581999    7.34641530551612
N         1.04890353824504    8.51580040591771    7.33926302895915
C         3.23517168338733    8.86808600857410    9.21060131294215
C         2.73123970089718   10.20376920438978    8.82855267491257
H         2.83337074326942   10.36214396418001    7.75710438355512
H         3.28391384980440   10.96870855826652    9.36708553327174
H         1.67165694895737   10.28476851809342    9.06310838586117
N        -0.32473262321084    6.94959586102072    6.22678469172428
C         1.78356151809850    7.49480355839876    7.74161870308948
N         0.17695071734411    4.68755434440244    6.47951093018321
C         0.48526249034780    6.00478682376135    6.68037299869001
N         0.94948726624841    3.73298075509840    7.04840558008296
C         0.02743613887488    8.19221184963715    6.55070330229988
C        -1.81134943201042    8.89977530395744    5.30444035708695
H        -2.25197385111844    9.85964307222788    5.04507108297623
H        -2.52203493694999    8.29420083586261    5.86871454275720
H        -1.51931868758536    8.35869112289119    4.40271559720908
C        -0.79496328772590    2.77570811785544    6.03216354813881
H        -1.46600745099079    2.01875067751013    5.68041819346477
C        -0.90909815123238    4.12618497549292    5.85111528294277
C        -1.95108369422127    4.90922649034186    5.15238721456036
H        -1.50806984557493    5.54675941839446    4.39042103898963
H        -2.46856832002714    5.55245082868608    5.86130827514822
H        -2.66485394874999    4.23195263455960    4.69150912169006
C         0.38086019391521    2.57536342230682    6.80001294444056
C         0.95405165765448    1.29753540218447    7.28351295358602
H         1.35926727347413    0.72707865134968    6.44808859176952
H         0.18032711289007    0.69762930009578    7.75879514238218
H         1.75122111954703    1.49656756622771    7.99930422756365

