58
CSD_code = KOJBAO | q = 0 | S = 0 | Stoichiometry = C16H37CrN3S | MND = 4
Cr        8.08571439932437    0.97623674237142   17.02828045896118
C         7.38510212117624    0.09402902691348   13.42162088087233
H         6.84773964543773   -0.61639961155723   14.04895504121484
H         6.66314444273586    0.71008092340999   12.89044520926859
H         7.97291715285711   -0.45817291007309   12.69169340611619
C         8.31088031816058    0.94939762592829   14.30222680911460
H         9.03815548986603    0.24933985648269   14.74189215023224
N         7.59040579983466    1.55920967593164   15.39492418404481
N         9.67456373812480    1.41142749732016   17.76152842045869
C        10.82182139382931    0.88316393911213   17.06276189942197
H        10.44543679994099    0.34846679288641   16.17777747299362
C        11.56716467310636   -0.16304158810005   17.90728971341857
H        12.02575685368035    0.29071847451868   18.78301065060736
H        10.86446037433484   -0.92861247978781   18.23499949693527
H        12.34682094194514   -0.63430002825605   17.31280204954074
C        11.78490817525765    1.96823894529822   16.55386216094395
H        11.22861431543748    2.74272919434940   16.02696000434945
H        12.33007900460104    2.43289526595280   17.37224122074559
H        12.50767728886087    1.52945931813765   15.86932950948141
C         9.10701876636689    1.95213476807999   13.45215752776931
H         9.75357720287924    1.41765457447991   12.75943782269144
H         8.44685908903639    2.59540896931270   12.87472102148774
H         9.72537924293679    2.57831998518417   14.09397763915584
C         6.58946204702942    2.54116623058960   15.01903693153162
H         6.55712189816649    2.64295758666764   13.92524607505871
C         5.20359960835046    2.10882840653224   15.50435776963545
H         4.93316854478775    1.14584563956841   15.07628220755136
H         5.23299099787365    2.01780944573201   16.58826778169766
H         4.45641024486903    2.84597573969443   15.22150970970306
C         6.94481221112284    3.90599398491762   15.61870427230728
H         6.94898468770445    3.81639251319374   16.70264711523639
H         7.93049557015866    4.22648231465620   15.28537045829849
H         6.21318285039382    4.65255074374195   15.31921013004530
N         6.97555200777581    1.56455332076338   18.04650994665216
C         9.96864657377749    2.20660864426747   18.94046933039632
H        11.05519881069959    2.25492017776779   19.09692170433886
C         9.44215983421662    3.63407225382667   18.76055616438962
H         9.88095934295949    4.09818011750398   17.87927252038305
H         8.36243104493211    3.58822640654906   18.63720854250101
H         9.68198836347152    4.23732467705033   19.63266118352603
C         9.33106920501019    1.57787760848821   20.18237742096933
H         8.25263485910605    1.55782834893357   20.04079731911769
H         9.68940623080013    0.56007802593542   20.32231067125575
H         9.56921122717281    2.16296477889468   21.06719554667105
C         6.89932492092379   -1.50383467534007   19.56515074920730
H         6.12618163739720   -1.85484953593717   20.24670989632397
H         7.85416604938531   -1.92892864021640   19.87044744944149
H         6.96027006362704   -0.41694807169631   19.62307900816002
C         6.56502869692436   -1.90677691768683   18.13622678435485
C         6.53541841714298   -3.42373230006100   17.97817167490171
H         7.49390425715920   -3.85451818252806   18.25881650867782
H         5.76033255864502   -3.84764919147056   18.61420511219984
H         6.32818352019642   -3.69468828309229   16.94529903344025
C         5.25187124918684   -1.27687466231336   17.69520223719504
H         4.44028733034376   -1.60652613835791   18.34181029766744
H         5.33908262290244   -0.19114152560934   17.75602438519500
H         5.01730381831995   -1.55573124597423   16.66902573669259
S         7.91066146771260   -1.27772255289394   17.03132357545816

