57
CSD_code = KOJLED | q = 1 | S = 0 | Stoichiometry = C21H28N6PRu(1+) | MND = 8
Ru       12.10045770356139   10.91986251791633    5.96759235201309
P        13.32298900811431   12.62775541176187    5.13849256237422
N        11.06086590134749   11.27721922150945    4.22504407699093
N        11.03113479293524   12.53212801978024    3.74371379556718
N        10.96631578114114   12.53887267258990    6.57306729831649
N        10.92591672693921   13.61963560749340    5.77406411940898
N        11.75420360450661   14.79766176756805    3.87157907630332
C        10.24912937797428   12.60866805011853    2.64411038787996
H        10.07150480700763   13.53588008121434    2.13953238829768
C        11.69793605555285   13.55111537634119    4.54017607455335
C        12.83274578927963   15.58502403844977    3.60264075752225
H        13.82419897622224   15.30476682739262    3.88829259100189
C         9.78632453762046   11.33965942637183    2.39689017936170
H         9.14867230664392   11.02836990982120    1.59665608151890
C        10.05546101273904   14.53740761915867    6.24704934725007
H         9.85981841774987   15.45323622266731    5.72856723565112
C        13.59144454609661    9.56885547090795    6.97170261499510
H        14.65127374587708    9.70975391431759    7.13979580410879
C        10.14011748152494   12.77810389097105    7.58009308977760
H        10.00068348622582   12.06823979667737    8.37275244928929
C        10.31806915457630   10.54017977621998    3.41353409672916
H        10.18698299504579    9.48704094849577    3.56896903005378
C        13.01212486809472    8.88367884816343    5.86269765755538
H        13.56021620229840    8.36776936315660    5.08554335899717
N        10.61916544120730   15.37473315848941    3.43404739080609
C         9.54272130398477   14.03251861339354    7.41728547363982
H         8.83169369903531   14.49877068737486    8.06615734878396
C        11.62690671897029    8.71778904770637    6.14582524765786
H        10.93411623468544    8.12108284789981    5.56855521824976
C        14.42101904660400   12.49525515742360    3.63982645226269
H        14.75072656297453   13.49026963393180    3.32328567901105
C        12.56204944832162    9.87880917973512    7.89155602044946
H        12.70398902017351   10.26774989302445    8.89120350274816
C        11.34209715471927    9.34276153601479    7.37457539179567
H        10.40308007353172    9.28394929286570    7.90735146320759
C        14.24445925926890   13.82350122461027    6.24312657021992
H        15.03082992328248   14.29124853760846    5.63761973262596
C        10.97305488826234   16.51148032372966    2.88590034172524
H        10.23291592611987   17.15623603044433    2.45740809589387
C        13.39559225778675   14.90746409957673    6.90276648826935
H        12.88764062912951   15.54376730903852    6.18218630381187
H        14.04796609654296   15.54207122762066    7.49976337263389
H        12.66132103130131   14.46971380573892    7.57574936800816
C        13.71117363387509   11.79906755611152    2.48374423476794
H        13.26659666423581   10.86159697910844    2.82061697940542
H        14.43249235484842   11.56649792387954    1.70331302905529
H        12.93944091381667   12.42724601458494    2.04392126386903
C        12.36544631547141   16.69979914364935    2.96399716613121
H        12.93097538382338   17.53222532479653    2.60283186777426
C        15.63483454616233   11.67664196779397    4.08213182526167
H        16.24487242059151   12.21740438678371    4.80195550925174
H        16.26036788106245   11.44886160785294    3.22190786774179
H        15.30732894262818   10.73569546278690    4.52554941862518
C        14.88770132497287   12.96225582594111    7.33153453082713
H        14.10861407489849   12.47840355973396    7.92154039085274
H        15.48914501302551   13.58157800095083    7.99286832490487
H        15.52777853561012   12.19146986073503    6.90884170421338

