54
CSD_code = KOJLUQ | q = 0 | S = 0 | Stoichiometry = C18H22B10CrO3 | MND = 9
Cr       -1.91180441818928   -4.87538413821453   -5.43704276300142
O        -1.93787015459578   -7.51292255924268   -6.81583809187997
O         0.94411424303482   -5.52832502580019   -5.96272253528011
O        -1.58294458593629   -6.46878508824808   -2.94470275715035
B        -4.12471540836425   -1.00143623443307   -2.35384190123915
B        -5.72925167350009   -0.41336679999728   -1.93312803531990
B        -6.88292988626703   -1.07690417327435   -3.09921339632011
B        -6.00012674705956   -2.07410174759682   -4.24783191509412
B        -3.70200154619447   -0.41419492969013   -3.94738546832181
B        -4.58283239969694    0.63094849138102   -2.80503903272946
B        -6.30583490143931    0.59335372041066   -3.27560658704517
B        -6.46713313774656   -0.45076214801618   -4.71535466104365
B        -4.84115835368113   -1.08024961438848   -5.10068422032728
B        -5.03688898978195    0.59399708043506   -4.53028020918092
C        -5.52498056722553   -1.98840444555755   -2.58835842567265
C        -4.36412200066745   -2.00067294868142   -3.73001961072893
C        -5.71318398700363   -3.18212466408743   -1.71342182246300
C        -6.54115848084774   -4.23981598387346   -2.09005591506525
C        -6.71676723241942   -5.34094587652507   -1.27174178417578
C        -6.07803221134249   -5.41270031585846   -0.04674864005156
C        -5.28033575368307   -4.35764556254936    0.35915907711371
C        -5.10467070208809   -3.25707155645045   -0.45954719391603
C        -3.50923705864564   -3.27633048704349   -3.74684649213963
C        -4.00876148292014   -4.38677385724297   -4.63987059784282
C        -4.01719674626232   -4.39379889833441   -6.01100526309504
C        -3.19535796217393   -3.64084279073297   -6.90089940376695
C        -2.08956398874785   -2.87786555055892   -6.57474224555198
C        -1.52912219394689   -2.68251262288619   -5.27857515746996
C        -2.05108328011432   -3.04610246310522   -4.06335124882234
C        -2.00738992747975   -6.48194066869625   -6.30530217427314
C        -0.13821845053602   -5.19655299910056   -5.74746780500836
C        -1.71053539192416   -5.84840332130536   -3.90550518140020
H        -3.30931568723911   -1.37144280715539   -1.59394844192538
H        -6.03635115012165   -0.34514117605972   -0.80054718049735
H        -7.93581809542942   -1.44195833219520   -2.72459621870601
H        -6.37738689530442   -3.09559863287122   -4.68204852286910
H        -2.56502368008603   -0.32168226706377   -4.22864649819684
H        -4.07420280423881    1.56059938373782   -2.29656755406460
H        -7.01845367758287    1.51025076730165   -3.09355103648997
H        -7.28075817571315   -0.27946154581126   -5.54656731647509
H        -4.47925311932196   -1.42446137963783   -6.16350160869791
H        -4.84066216636757    1.50651932463261   -5.24546403305068
H        -7.07225995962261   -4.20375513139930   -3.02751916652927
H        -7.36033400672376   -6.14549556284206   -1.59550501914348
H        -6.20996702781067   -6.27473616190432    0.58883090403321
H        -4.79025540798666   -4.38738319619510    1.32081925822014
H        -4.49178754419332   -2.44235892576705   -0.10814592619011
H        -3.53575082072095   -3.68235951671888   -2.72458335452910
H        -4.67092609794500   -5.09343693116937   -4.14823113665943
H        -4.69866471788481   -5.08838262182418   -6.49655571511836
H        -3.45327378026353   -3.70829968413084   -7.95299762034744
H        -1.56206236714889   -2.40183414377192   -7.39489004843802
H        -0.54206351789481   -2.22661941714477   -5.27278439840678
H        -1.42833392295706   -2.85082386274611   -3.19642790765388

