53
CSD_code = KOJPEH | q = 0 | S = 0 | Stoichiometry = C27H21BrCuNS2 | MND = 4
Br        7.96866143237107    3.15247512637547   12.81773075160620
Cu        8.41662182327462    2.57750575106767   10.65211240226643
S        10.45079503366584    3.16071178001988    9.37730630269679
S         8.03468166765565    0.19778608770731   10.09059098719049
N         7.14980466131312    3.28492850911902    9.24070289178329
C         5.95351273280590    2.82542903360606    9.66374983265888
C        11.25264775690396    4.54800715930525   10.18376195565362
C         7.38539144296135    4.61279519360982    9.27325551632491
C         9.39803334427320   -0.45590635252070    7.74148243168910
H         8.44890928393714   -0.54945427089479    7.23677593472401
C         5.67508791733768    1.43900014373339    9.52047216273536
C         9.46512981957900   -0.12008966438962    9.08465099967582
C         4.49314813189258    0.93593979313231    9.99690935204660
H         4.28645989361192   -0.12029676637097    9.90315431718008
C         5.27927765038699    5.03310808438613   10.38432776059650
H         4.57967780877710    5.69901638582168   10.86830864441500
C        10.69757231817132   -0.04720155457778    9.72614587519051
H        10.73523162002150    0.20319346890266   10.77567920055539
C         4.98000903884048    3.67610316683645   10.26714082942475
C         8.60000172606214    5.09600197725475    8.71427536233581
C         6.47642388669279    5.53392806514178    9.87385789882381
C         9.54172289888043    4.12895389832017    8.09044632267966
H        10.29449081786302    4.62647064931137    7.48059993384010
H         9.01779074132331    3.37111605240902    7.50910757845095
C        12.50857231135566    4.92054143296338    9.73026118994306
H        12.98352590850349    4.35058242294394    8.94588329867722
C        10.62349291330906    5.25173769845669   11.19535633284559
H         9.65529756308969    4.94856910220590   11.56044336681145
C        11.25940534912449    6.34821882612663   11.75263754785191
H        10.77051375135123    6.89421508221311   12.54430285091005
C         6.69910065317154    0.57033850882101    8.87006396544896
H         7.17209057297168    1.09732364440540    8.04201700267604
H         6.27199523688025   -0.37839330654893    8.54701602000715
C         8.90516772165659    6.42895807795164    8.81437876454648
H         9.83748303261865    6.79539508471874    8.40858806502932
C        10.56895026093471   -0.68396793714121    7.03826905599341
H        10.51339850651957   -0.93824594034914    5.98969306878166
C         3.54310111342958    1.76987273869150   10.61184576884150
H         2.62825672706028    1.33456949208658   10.98388409484750
C         3.77502502666609    3.10684620088930   10.74203833708721
H         3.05440720111563    3.75425604372179   11.21861207936206
C         8.02479089894168    7.33170071868860    9.43547487755821
H         8.30518521482135    8.37177696929570    9.50264065397524
C        11.85771483583721   -0.28726552034839    9.01768806829205
H        12.81079767782651   -0.22448504776138    9.52027747553329
C        11.79754267116769   -0.59780370716978    7.66845768831948
H        12.70462523170973   -0.77799204260853    7.11174848516804
C        12.50953149145300    6.73355359938848   11.30023864634381
H        13.00157116283204    7.58971825353650   11.73707521416120
C         6.83734280771442    6.90033584494318    9.94746246824339
H         6.15517862315968    7.58585469581679   10.42746094473112
C        13.13540569164048    6.01808578072902   10.29165864448550
H        14.11334639453567    6.31338156602910    9.94148077898476

