122
CSD_code = KOJQIL | q = 0 | S = 0 | Stoichiometry = C50H66ClIrN4 | MND = 5
Ir        4.16593002603038    8.04153368175863   11.08422315680770
Cl        5.33421059400107    8.22323312624356    9.01593349911919
C         2.57950790874055    7.35174310292537   12.33316523656741
C         3.55404861020928    7.99501061594920   13.13982438560934
C         3.22602264391119    9.23329884249526   13.94434329145394
C         2.56404694346667    8.91686398171390   15.29406315465550
C         1.16154001454630    7.84491905350963   12.19826965238367
C         4.20475950924082   10.10053850704778   11.06760090536731
N         3.21947973991238   11.02744708637910   10.99100515945539
C         3.71112082276635   12.36612365245055   10.66148270874477
C         5.18858921203833   12.23225263107891   10.96869215407953
N         5.36690891602893   10.78023833546562   10.97842144584389
C         6.71287130779432   10.34593040152868   10.84028277232134
C         7.42814615895438    9.85914451811370   11.93552096661399
C         6.74251553456915    9.58199679257379   13.23291200718203
C         8.78955559904028    9.63083355135825   11.80965438587356
C         9.45602155636041    9.85075146433934   10.61613709559637
C         8.72255715796489   10.29949202039284    9.52819546995330
C         7.36556562298555   10.56509056247422    9.62091442141713
C         6.65170139734458   11.07476407160579    8.40350278038540
C         1.81533397023660   10.85473454915690   10.94886968210029
C         1.01592075234133   11.46660574254536   11.92104350849732
C         1.22045093429486   10.15528807029049    9.89227401076056
C         2.05359391452882    9.53538084036530    8.82599656963965
C        -0.15918571404426   10.02685220170449    9.86035558171158
C        -0.96701351712853   10.59337291128488   10.83385448694711
C        -2.45419975279904   10.40984332654359   10.80223327472683
C         4.49550852159217    6.06080836795447   10.63931630149170
N         5.67779258110849    5.45012465896149   10.80474514136008
C         6.70021371117053    5.78907963196878   11.72626893898824
C         6.51658932648053    5.51004291172892   13.08535011922233
C         5.27608108605273    4.82697994594465   13.58239935344796
C         7.53564415297142    5.80448552240465   13.97615547478285
C         8.75012590412152    6.31875612132770   13.54440404740058
C         8.93088071182665    6.53135576332877   12.18865781080976
C         7.92253914204655    6.28470313595244   11.26726267321230
C         8.17804285001248    6.52758667392199    9.81425541045920
C         9.83613486358110    6.62547134209163   14.53202108904167
C         5.80793364367103    4.20264869435619   10.05687568936447
C         4.49512321365687    4.14495863651789    9.28130229309529
N         3.77242175020473    5.30272084621357    9.79875030217239
C         2.39064462146692    5.43664866957684    9.50308567645759
C         1.97042517037180    6.08606361925731    8.33870907631414
C         2.95076949215302    6.52858953111051    7.30059472343969
C         0.61018116473726    6.26431432244355    8.13146523371716
C        -0.33561551260405    5.78040289637161    9.02163710447943
C         0.10240542752178    5.03302569001798   10.10360383984757
C         1.45344780048763    4.83805160162964   10.34995027797587
C         1.85803837061261    3.93161832793485   11.47799043347860
C         0.79543841780548    7.15495926696068   14.64824942866631
C         0.24552268737812    7.16103384324360   13.22208057964580
C        -0.36289549315219   11.31883123278189   11.84827504656807
C         1.58114861270414   12.27808935074822   13.05427251409938
C         1.08038124742578    8.54988075781081   15.22037500978844
C        -1.79598458719649    6.04933179179117    8.82017521269370
C        10.93384609339094    9.62275726870376   10.49297581387040
H         2.59044609386354    6.26479043712252   12.34613034507026
H         4.23711972168012    7.34416162333018   13.68867995823667
H         4.14404270303700    9.78461043182795   14.15560333568297
H         2.56655094265118    9.88323388093866   13.38127853145664
H         3.11103257093899    8.11048633012340   15.78899658929088
H         2.65453362713035    9.80520942209649   15.92707099592598
H         1.10668669056855    8.91833167786605   12.33526522308321
H         0.77958823295796    7.61879029133224   11.20046717568718
H         3.21238454383506   13.13697243284223   11.24716847014243
H         3.52465415026138   12.57267633873654    9.59792627284233
H         5.44275032244335   12.63195872231191   11.96097570258208
H         5.83301453926472   12.71330840285045   10.23460973875657
H         7.45538615465181    9.25781626577199   13.98608015860690
H         6.00847035326324    8.79154122746880   13.07928390868094
H         6.22264726383740   10.46778659333006   13.59569863647222
H         9.33845117838168    9.28420829979142   12.67300039098520
H         9.22031855561735   10.45804857034217    8.58145301936679
H         6.99167591331549   10.52497309290795    7.52893428803442
H         5.57855815606312   10.93366395064992    8.48614221247519
H         6.86704737290514   12.13313065216410    8.24045315067112
H         1.43285996743662    9.16470343551049    8.01670067904157
H         2.61619457573808    8.69727640622203    9.25151698804880
H         2.77903469751683   10.23931648907272    8.42310143742073
H        -0.61223196060920    9.47250464561056    9.05085771549344
H        -2.96251499436569   11.26200643072380   11.24776204739956
H        -2.72872250876842    9.51970951273544   11.36985686042138
H        -2.80778071549448   10.28096847693763    9.78179645614148
H         5.12251412367992    5.02996549599294   14.63957252783432
H         5.37885796769906    3.74645030074509   13.46148454885223
H         4.39929957274943    5.15078105529615   13.03081335642053
H         7.38919146071605    5.60444526789783   15.02872230744580
H         9.88198761686183    6.89418520758420   11.82738116146155
H         8.96460562631121    7.26680154037135    9.69096128274840
H         8.49685160575955    5.60837720768248    9.31981063592787
H         7.28167892828375    6.89611665107730    9.32085196532203
H        10.77746165854696    6.82634785712821   14.02612449509489
H         9.97885836482644    5.79311234323463   15.21920405435336
H         9.57006451254630    7.50136137777573   15.12472231281354
H         5.93200263175643    3.36244244461169   10.75183798752101
H         6.67897919192907    4.23458214079069    9.39953525421416
H         3.92684569055349    3.22650731533072    9.45996760102142
H         4.64908196682280    4.25142206481508    8.20294128708197
H         2.48757858510161    7.21768455013930    6.59972509566914
H         3.30318822217499    5.66363373263793    6.73684836006671
H         3.81614563647386    7.01249225886053    7.74905399082050
H         0.28169163638409    6.78728942696697    7.24389169786949
H        -0.62242512664598    4.58732965213642   10.77058425086441
H         1.29986871042706    4.16261735899584   12.38322665854652
H         1.63174871123157    2.89853769002126   11.20723795249645
H         2.91940172557730    4.00068143208831   11.69585588322647
H         1.70996810198305    6.56262187327111   14.67778904429235
H         0.06190466813817    6.64908210625695   15.28245560445970
H         0.07595406373676    6.12607714051472   12.91639298737341
H        -0.72389162446459    7.66651215546843   13.21108171821442
H        -0.97616413079138   11.78153350212080   12.60928055896873
H         1.04913176186091   12.05035565615766   13.97655528313184
H         2.63760842638856   12.08079904498329   13.21155236546656
H         1.44832383131649   13.34324443000733   12.85540957737428
H         0.68240269508682    8.60030524033762   16.23788346964564
H         0.55152694340660    9.30174721403650   14.63216718477091
H        -2.39631851174442    5.19785581605594    9.13346695491424
H        -2.01296589415315    6.27023109545589    7.77763252392014
H        -2.09513047805062    6.90941678908873    9.42067534990257
H        11.15208147339988    8.94875293304961    9.66523885311559
H        11.34007792188737    9.19762879883967   11.40780578101837
H        11.44612874890206   10.56428372737832   10.29497140712346

