106
CSD_code = KOJRAE | q = 0 | S = 0 | Stoichiometry = C44H56ClIrN4 | MND = 3
Ir       21.46988984082917   10.76888202751034    0.81160079025858
Cl       21.47308301191138   10.76814075948364    3.16579996022195
C        22.55577223303930    9.06592551446649    0.90936670392182
C        21.18917445580906    7.20452594815105    1.64677919868366
C        20.55857463953544    6.64230056130673    0.53715078791672
C        19.38402316985522    5.92578781296348    0.71697697865829
C        18.81996921325465    5.76813386623356    1.97110628163553
C        19.47039809528760    6.32598353821120    3.06202381005462
C        20.65911349017124    7.02735882097239    2.92870969458553
C        21.34047841678495    7.56749564480232    4.14476693417545
C        17.54666232293116    4.99808107405828    2.16071851934738
C        21.11753462419016    6.79115103115021   -0.84604095355554
C        23.58101224519692    6.96870219021768    1.71221189720710
C        24.85208567623981    7.78449991046797    1.88917758458017
C        24.99660341751363    8.66045246884351    0.65343490947175
C        23.88544712737695   10.74505226714677   -0.06962165416877
C        24.55953921293803   11.77623017647555    0.61686127307663
C        24.82737185040528   11.67239317966816    2.08629728803218
C        24.97087718693599   12.89336899053766   -0.08899398263831
C        24.74481530527310   13.02624301981539   -1.45230227114960
C        25.25957197983653   14.20775283857307   -2.21860728248403
C        24.04382547429377   12.02034311161520   -2.10975566557627
C        23.63301681123889   10.87409775650349   -1.45383178251347
C        22.98807111385948    9.75262956970988   -2.21937239652282
N        22.44814578593551    7.85049572527472    1.46256760241481
N        23.78607535467388    9.44463660971179    0.52383303608416
H        18.90782126465328    5.47801994621420   -0.14331885815130
H        19.04515552569469    6.20092360284847    4.04822617283045
H        22.24968892215774    7.00949323775579    4.36826222205286
H        21.60842732480498    8.61169087019387    3.99381155581448
H        20.68321360957356    7.49951773576710    5.00736319364246
H        16.83012250216007    5.57980423326187    2.73890085480414
H        17.09864548337712    4.74182720076556    1.20351480126901
H        17.74065977599894    4.07504534757946    2.70688319462193
H        20.87544294382721    5.91777219213469   -1.44852136609290
H        22.19616449536036    6.91972536639783   -0.83700497045625
H        20.67494836824169    7.66565174171309   -1.32159710525938
H        23.70136492713583    6.26358455751087    0.87580266960591
H        23.37042095872521    6.37776309862265    2.60674756581593
H        24.75425423940797    8.41943187234943    2.77149277923115
H        25.71470919457090    7.12957815546406    2.01406328237270
H        25.14684459404256    8.03256999904719   -0.23835648746814
H        25.85309962636102    9.33419315595838    0.73080901639114
H        25.67285138471784   11.01639504646383    2.29581903674732
H        25.04741577104165   12.65550186944088    2.49343690109190
H        23.95229690268574   11.27636123463684    2.59992267595222
H        25.50656838694641   13.66938116651118    0.43689010605397
H        25.85751426880287   13.87787192210228   -3.06790539865516
H        24.43559878874007   14.80550012532819   -2.60781533018379
H        25.87715494003348   14.83832620318849   -1.58445157476392
H        23.85487842485534   12.11682603846247   -3.17107705229756
H        22.04713069824203    9.45774902507666   -1.75784124885768
H        23.64167754699382    8.87963439949284   -2.23856302405240
H        22.79410132039843   10.05491667909103   -3.24568409349564
C        20.38447167580878   12.47215897804176    0.91109409087178
C        21.75178899460362   14.33304867142529    1.64790165336920
C        22.38372083038334   14.89481217278046    0.53885839585667
C        23.55930026641706   15.60945587117051    0.71961984160461
C        24.12294320037704   15.76552590885583    1.97411925000913
C        23.47097378007793   15.20836874076196    3.06450016976792
C        22.28124337093196   14.50891389380483    2.93028124580794
C        21.59883852837800   13.96802845200927    4.14531957499993
C        25.39768753350320   16.53294188412013    2.16476325090724
C        21.82556222884976   14.74708339328745   -0.84480135679566
C        19.35982002163000   14.57144146083033    1.70872869696750
C        18.08806206600252   13.75681500034199    1.88642641686071
C        17.94392756539403   12.87823635157378    0.65247936099112
C        19.05577620774385   10.79249096335181   -0.06721767220629
C        18.38138401558177    9.76186620722044    0.61993599848752
C        18.11339665644439    9.86720961676091    2.08926502109391
C        17.97009077206207    8.64421913254525   -0.08506274617938
C        18.19615334902133    8.51042409544167   -1.44831753663112
C        17.68090193171527    7.32869423915579   -2.21393775203162
C        18.89747643385324    9.51566635501722   -2.10643332967064
C        19.30855419468926   10.66231040260611   -1.45134930548237
C        19.95368581620219   11.78318782970460   -2.21770613192544
N        20.49235344485031   13.68821898529191    1.46269153329051
N        19.15435366507174   12.09355488036157    0.52505736218711
H        24.03665357394858   16.05683084069589   -0.14025155297401
H        23.89601442318066   15.33227235543613    4.05093013181060
H        20.68119604234307   14.51542502377638    4.35986416935078
H        21.34444477556618   12.91975359444861    3.99825663741498
H        22.24978750904227   14.04875288201180    5.01158622264022
H        26.11292657843870   15.94926468780353    2.74255722832593
H        25.84649824857945   16.78919805497427    1.20795489844832
H        25.20546501959247   17.45583051714244    2.71174862838176
H        22.06783076512722   15.62106810842143   -1.44634285239827
H        20.74697130866121   14.61822570439043   -0.83663136255307
H        22.26865946813782   13.87312242211489   -1.32089089911155
H        19.24070815431693   15.27439100095535    0.87032512985098
H        19.56983941086574   15.16482429072369    2.60181629576199
H        18.18472022442556   13.12375511374844    2.77022158044094
H        17.22574944076925   14.41255956771547    2.00914654127767
H        17.79409976506743   13.50423989998927   -0.24070464635718
H        17.08727582315008   12.20480289487543    0.73099262306312
H        17.26735376508099   10.52277845565787    2.29793057453602
H        17.89410671267049    8.88440428708267    2.49754750658065
H        18.98811463644942   10.26455298525335    2.60246050723369
H        17.43439912888591    7.86855010107240    0.44134628205187
H        17.08168970063447    7.65836966427310   -3.06243434121120
H        18.50458674657290    6.73130131433279   -2.60427514019227
H        17.06437432124764    6.69790315489426   -1.57897935397558
H        19.08652253713479    9.41831818630905   -3.16766516705536
H        20.89375901943161   12.07966509586262   -1.75538975884715
H        19.29932510021673   12.65558430002655   -2.23923150605328
H        20.14935700599909   11.47946157250897   -3.24327118902011

