105
CSD_code = KOJRIK | q = 1 | S = 0 | Stoichiometry = C52H48AgP4(1+) | MND = 4
Ag        3.08792743731736    0.42960811636621    3.98048783485100
P         4.32618024387522   -0.95926868149841    2.27784328606467
P         1.57365316164457   -1.60323227751282    4.07019061339361
P         2.01684637615998    2.65721537619217    3.39953237276708
P         3.73214049626084    1.67077716324874    6.08483284479607
C         3.09005455854267   -2.24428035734186    1.78333438891993
C         2.41271592767747   -2.86692857967067    3.00010380967518
C         2.35993767572693    3.77063086305498    4.84777411282999
C         2.45323281702540    3.00772648580831    6.16586839525244
C         5.10848789637754   -0.48957353202546    0.70733415020769
C         6.32620781014696    0.18272370147624    0.81459729804513
C         6.96505621137241    0.65278169272598   -0.31514155003365
C         6.38452776890621    0.47270952956895   -1.56200712680630
C         5.16591322914886   -0.17529047226630   -1.67135756001790
C         4.52146201928567   -0.65225714411382   -0.54216987171179
C         5.58776931421323   -2.01893347519952    3.04533310897300
C         6.37799625913557   -2.88068822440399    2.29057682442628
C         7.29942324251225   -3.69455117552938    2.92236575952221
C         7.43402560269058   -3.65653320608699    4.30205990584585
C         6.64965055059797   -2.79864361929842    5.05588545232615
C         5.73066564981619   -1.97849450935230    4.42775023253497
C        -0.02313156879376   -1.39837395498573    3.21913180244586
C        -0.03811535661199   -0.52554144398158    2.13224364337047
C        -1.21080323453910   -0.28349372354665    1.44504572160884
C        -2.38590193011445   -0.89441956248117    1.85300607545816
C        -2.38226914846474   -1.74142740606154    2.94859990286107
C        -1.20736882311243   -1.99476900012958    3.63516178081016
C         1.21864190346112   -2.56740623666242    5.56663965756117
C         1.44807574588627   -1.92737707275549    6.78138009951225
C         1.22452808992775   -2.58687324859128    7.97545853334794
C         0.76892738020305   -3.89486016125759    7.96137459429440
C         0.54514713857388   -4.54088224597316    6.75496799948603
C         0.77060881852679   -3.88592046455468    5.55806753364691
C         2.58590970269020    3.68376188843455    2.01514241757408
C         3.30965759125404    3.04007755256306    1.01576452455037
C         3.80504083543778    3.75260141360563   -0.06044796502534
C         3.57885857497370    5.11666668119245   -0.14222063301796
C         2.86084221481034    5.76453629834454    0.85183419730562
C         2.36540795814927    5.05625832719501    1.93109888958289
C         0.19845694270125    2.69341843874034    3.32039245973636
C        -0.52065771752073    3.40692453721207    2.36936560269388
C        -1.90254903956593    3.32805242016948    2.35235825548137
C        -2.57140651052101    2.53902568480477    3.27298737718493
C        -1.85711969409166    1.81217537061862    4.21234539206489
C        -0.47850548075920    1.88041354826457    4.22800187634361
C         3.87728403510961    1.12313242949672    7.80972590666216
C         2.83112946619900    1.18293539777883    8.72408394462824
C         2.99324113460941    0.64978873854612    9.99135883823763
C         4.18663263369381    0.04575412721087   10.34926439191621
C         5.22525233075459   -0.03346822669055    9.43386580646210
C         5.06880333032905    0.49265076764869    8.16697599298762
C         5.21535521965162    2.69577802521739    5.85380346370020
C         5.81353108849500    2.70786208506267    4.59846269450640
C         6.90764442962505    3.51786780441052    4.35689418268036
C         7.41299692571737    4.31209581194385    5.37352356581694
C         6.82402185736274    4.29729753226847    6.62882975665089
C         5.72494748235233    3.49503293714282    6.87272829249495
H         3.60665975885272   -3.01609817119993    1.20035079345209
H         2.33741482178599   -1.76811395499780    1.14674468958251
H         1.67961511087951   -3.61405607259893    2.67770676455122
H         3.15968227092622   -3.35890861224319    3.63483095460974
H         1.57748574603169    4.53426818300980    4.91150601304728
H         3.31637762294285    4.26317945156270    4.63673717991956
H         2.71625690522594    3.69177355950772    6.98149532686399
H         1.48878219643509    2.54408014155624    6.39626374787932
H         6.76721118839839    0.32072164235839    1.79482484052927
H         7.91341244137254    1.16127427751170   -0.22747408055365
H         6.88158165484279    0.83931475764715   -2.44714951558318
H         4.71219394405486   -0.31280121260841   -2.64159679390225
H         3.56889700534780   -1.15089747081264   -0.64483459671147
H         6.27589780139017   -2.90345278441833    1.21400374647187
H         7.91503949247095   -4.36185786703714    2.33830045849448
H         8.15542433477028   -4.29459952356177    4.78912109874841
H         6.75581589948434   -2.76781156532031    6.13000178564752
H         5.11278438879138   -1.29379194140236    5.00780209938851
H         0.87654219875205   -0.01680339980152    1.84067210540886
H        -1.21299070635726    0.39119830293541    0.60203315104363
H        -3.30573584104245   -0.70177618568631    1.32254760313892
H        -3.30058335795123   -2.20709988109663    3.27377025862504
H        -1.21502941211429   -2.64525488265994    4.49783240485102
H         1.81634269632390   -0.90573318647128    6.78090975978087
H         1.41096288903403   -2.08330447711097    8.91243607231578
H         0.59236028863805   -4.41551006403707    8.89011874756545
H         0.19473205011983   -5.56219313469888    6.74772255478165
H         0.59845845086686   -4.39941608942489    4.62286518392486
H         3.48886133707151    1.97179455169401    1.09331101065627
H         4.36913908741159    3.24451171946547   -0.82861100260829
H         3.96414050547225    5.67882475057822   -0.97911491494134
H         2.68759858159728    6.82818638860449    0.78490354693827
H         1.80802862661516    5.56725749541133    2.70334492648155
H        -0.00384174685058    4.01444163419884    1.64035637864638
H        -2.45914661438554    3.88455874503031    1.61317373498466
H        -3.64888546433493    2.48195510771373    3.25319917192053
H        -2.37471150155767    1.18315538359252    4.92106191026520
H         0.08664801806403    1.28205527486763    4.93582055000674
H         1.89211651827782    1.64605895305642    8.45728025668676
H         2.18235215393295    0.70807080869512   10.70236142324718
H         4.30724364353568   -0.36624715260278   11.33943419605651
H         6.15495373488506   -0.50774353977225    9.71013690770950
H         5.87228097131864    0.43203772164442    7.44296469660687
H         5.41018806208139    2.07294502191865    3.81037546570886
H         7.36642343337166    3.52918814167111    3.37948417998051
H         8.26979583743940    4.94203380144644    5.18947534944618
H         7.22301355453905    4.91491402069583    7.41928869463103
H         5.26702084631203    3.47857858868513    7.85240030626813

