73
CSD_code = KOJVOX | q = 0 | S = 0 | Stoichiometry = C24H40BCoN6S | MND = 4
Co       -2.20094348276188   -7.47408075531168   -7.66298379589549
S        -0.63894446763669   -6.52832895341093   -6.77223312620513
B        -4.98861419436532   -8.24915090769181   -7.18673381626266
H        -6.10524904306403   -8.54253582825413   -6.95809126207131
N        -4.53630319715734   -8.77078176790592   -8.55673959837837
N        -3.29883166932103   -8.48477706225000   -8.98600245588162
N        -4.80778005864666   -6.72491711651152   -7.22361665367697
N        -3.66841467882827   -6.17268986786188   -7.68173564582238
N        -4.02737328625207   -8.85995471173939   -6.15797863306800
N        -2.70086619452338   -8.89134505022003   -6.38977399217684
C        -6.58193667915923   -9.98681174388027   -9.31257001637597
H        -6.87581618856620  -10.55453513825585  -10.19128121540347
H        -6.66281088828418  -10.62676176781191   -8.43551979910771
H        -7.26885181908954   -9.15168739706178   -9.18604352402390
C        -5.18806330976961   -9.49925105367276   -9.47831827488566
C        -4.32713527435918   -9.68126761233133  -10.54404273653026
H        -4.53572260425534  -10.21751823124346  -11.44662336390865
C        -3.14185230258077   -9.02540584630811  -10.19362492425096
C        -1.91654064372999   -8.84697557210928  -11.04822591261466
C        -2.13041583682667   -7.59278595592284  -11.90774439504255
H        -1.28682217107404   -7.44724848808758  -12.57888570824198
H        -3.03579858252679   -7.68797949207856  -12.50382913472505
H        -2.22483426708008   -6.71689869994711  -11.27204556389380
C        -0.66416596919601   -8.67325814651567  -10.18960160467654
H         0.17868913466664   -8.36595167918120  -10.80444337151867
H        -0.82532060548826   -7.89965808739948   -9.42223875609294
H        -0.41034339641992   -9.60706032631213   -9.69466301191068
C        -1.72712980936207  -10.06300556688203  -11.96226095573116
H        -0.78970827183984   -9.97143697482259  -12.50635350398303
H        -1.69920727245412  -10.98055942365274  -11.37862148608740
H        -2.53340490428714  -10.13723705097660  -12.68715750475616
C        -7.10064981375860   -6.02875203417392   -6.50825050320911
H        -7.61575719623253   -5.08314561385199   -6.36225750067487
H        -7.67176669615393   -6.63483259214038   -7.20959702587691
H        -7.05890366772383   -6.55934946065080   -5.55928089799443
C        -5.73176476147726   -5.77044640323888   -7.02524966551695
C        -5.16432366138222   -4.56431054524437   -7.38243407468283
H        -5.63651769027917   -3.60528567208212   -7.34200043319497
C        -3.86273660717818   -4.85598819783325   -7.80356938022371
C        -2.86958814488249   -3.85415897254450   -8.33523283758019
C        -1.96056564971167   -3.38838287238635   -7.19171954371248
H        -1.27138467174414   -2.62626891622457   -7.54796648843329
H        -2.55386540087073   -2.97296765972364   -6.37989970146107
H        -1.38170979500948   -4.22299400119488   -6.80211733559784
C        -2.03865425328875   -4.47051145799974   -9.46246386203298
H        -1.27321222765772   -3.77138254965107   -9.79073886154277
H        -1.54545308933002   -5.38172783959035   -9.12065904906157
H        -2.67934879232198   -4.71031896375803  -10.30929172937526
C        -3.61547567944254   -2.63652001638763   -8.89805918219359
H        -2.90694759317519   -1.97492662611103   -9.39149679099853
H        -4.36478493128248   -2.94201040359529   -9.62542162967663
H        -4.10376290474585   -2.07431263631311   -8.10665465174542
C        -5.69596457854475   -9.78473584376668   -4.54256148427605
H        -5.65096081557263  -10.36199297871796   -3.62302411972333
H        -6.14806229174306   -8.81770288859122   -4.33205653689000
H        -6.33258550991922  -10.30789320731442   -5.25431437965928
C        -4.32377475136493   -9.61340272115248   -5.08609875523238
C        -3.14332137132677  -10.15832901203467   -4.62451864952358
H        -3.03226590369717  -10.80753075766655   -3.78152079989608
C        -2.13863040641476   -9.69160559093392   -5.47908092904542
C        -0.68401515783885  -10.07961837164632   -5.40700675202291
C         0.06945246592939   -9.06408834815652   -4.54000164627141
H         1.11397588347740   -9.35239745345334   -4.44767394012290
H         0.02196423319165   -8.07430992262906   -4.98899036901528
H        -0.36946115107053   -9.01216337384182   -3.54591669050191
C        -0.55596848636042  -11.46901803737093   -4.76712072033393
H         0.47937954363397  -11.79833203584349   -4.82027412763062
H        -0.84719827921787  -11.44942852019964   -3.72050521616376
H        -1.17543352539860  -12.19494293101760   -5.28975360348505
C        -0.07556691198794  -10.13458835812976   -6.80898640609221
H         0.97047082467115  -10.42688389282266   -6.75293583766583
H        -0.60961364068547  -10.85668100414409   -7.42426967120033
H        -0.13223500786763   -9.15600504027223   -7.28234447726945

