56
CSD_code = KOJWAJ | q = 0 | S = 0 | Stoichiometry = C24H25F3IrNO2 | MND = 8
Ir       12.29996625082560    4.44556256156271    0.25985276341795
N        13.47600267912668    5.38333644678780   -1.12257459216254
O        13.39388142684959    2.67618504438625   -0.21668470119764
O        12.20802294252959    2.80825314034955   -2.07256605724136
F        14.31806008036889    4.40684454346323    5.44710856422457
F        16.18195161169837    3.44707374367294    4.97552623845157
F        16.14576912380551    5.53583742001360    5.47264379280618
C        10.76673949446106    5.17767901160212    1.68788411920576
C        10.53877619290057    5.75639445935480    0.39252101269247
C        10.04247113980579    4.71288576124860   -0.47871697186752
C        10.10261572127517    3.50751049937850    0.21609717367679
C        10.62296266198814    3.76419196928069    1.54754332865213
C        10.95514747931796    5.95058374742986    2.95626518489336
H         9.98743677615303    6.32463498356998    3.29521490626340
H        11.61548298090477    6.80203569888906    2.80863044540656
H        11.37292131110341    5.33097174537161    3.74391189749059
C        10.43414016668694    7.22546326333570    0.11662133729267
H         9.41613162417797    7.56685974810896    0.31387711727464
H        10.67177968943020    7.45168136638523   -0.92119247574353
H        11.11094977179866    7.78995274002665    0.75375363679630
C         9.50600668726079    4.87149358232351   -1.86298571648923
H         9.99434121051099    4.16420811021736   -2.53390382883555
H         9.65498637015471    5.88221281152506   -2.23606774435595
H         8.43627573654265    4.65613371191277   -1.87648981100872
C         9.62422890074821    2.19204210566803   -0.29752908877437
H         8.53324823144981    2.18689081514214   -0.34161729604356
H         9.94918574240411    1.37732869603150    0.34421222613370
H        10.00433892765148    2.01982271357243   -1.30311127752003
C        10.59821164668270    2.75848730213062    2.65895625519038
H        11.08092422935821    3.14686444239750    3.55180677218121
H        11.11058641279944    1.84395271045248    2.36637481160141
H         9.56645543657289    2.50661111072946    2.91111022525596
C        13.02787346055071    2.23893718625207   -1.35699567463030
C        13.67666161586963    0.93076576372927   -1.78192956691261
H        13.74689991672027    0.88992455685050   -2.86481103941277
H        13.05183452797866    0.10892713989004   -1.43860871591437
H        14.65756719657598    0.84052124141500   -1.32645816567673
C        13.10476251459859    5.56384111889570   -2.38668090769908
H        12.11629663058676    5.22411089516620   -2.65297660775770
C        13.93827624189910    6.11994725555206   -3.33806743236739
H        13.59184771456439    6.24426716212599   -4.35120145573747
C        15.22072602633773    6.49931339564086   -2.96455878974525
H        15.90149060968326    6.92618592766114   -3.68524976555728
C        15.61012937846053    6.31596125600289   -1.65220625097133
H        16.60076478136704    6.59464942275433   -1.33237927203432
C        14.71825721515501    5.75884929295970   -0.73787854723528
C        14.98715036659122    5.51483170022286    0.67095443332075
C        13.92908589365801    4.88230863042197    1.35792037169852
C        14.12013640646742    4.57098624376684    2.69755156465751
H        13.35691569651041    4.04548706046624    3.24826488041368
C        15.29527540636955    4.92329520328404    3.34518532806854
C        16.32667094090912    5.56419222417917    2.66525916827859
H        17.23438748344073    5.82755695392515    3.18585491788625
C        16.17252359555038    5.84835333762422    1.32498652556836
H        16.97838835957120    6.32887041834068    0.79209146649355
C        15.47937936324147    4.58313060654883    4.79516128759921

