43
CSD_code = KOJZEQ | q = 0 | S = 0 | Stoichiometry = C14H20Cl2N2O2PdS2 | MND = 4
Pd        7.91290057245299    7.48387886472150    3.78777840798049
S         6.34521581590067    7.95202924006525    2.12755788276591
S         6.20107240425206    7.04859446476163    5.30853834753607
Cl        9.40165304802919    7.02450216085493    5.38816484553983
Cl        9.54063169523036    7.91401681483245    2.32005347740312
O         3.57802277304742   11.63260296286692    1.22993398538277
O         3.29588829294273    3.42362938680606    5.96730980903696
C         6.29665189866787    5.24046109768696    4.94444325808591
N         3.86961856273991    3.65371540960642    7.17447155175593
C         6.44823970243473    9.75888128786833    2.49586564880531
C         5.17204952000406    4.51629879305580    5.56894827628451
C         4.06632612388379    3.94058630165650    4.99659384531721
C         5.39312989584294   10.50368347117217    1.78094815242235
N         4.24240793694386   11.38616362864395    0.07355985204598
C         4.98404083043232    4.29748428484657    6.97004207956337
C         4.25687777832130   11.10391448251300    2.26086289168991
C         4.67979308844297    7.55782546875095    4.41003215518753
C         4.74258189650124    7.47859565456718    2.89460476948379
C         5.32324388781384   10.72071509255879    0.36873997151199
C         5.89230145806750    4.71344481706198    8.06179252597874
C         3.70305841366875   11.27636550350576    3.62716609885996
C         6.30760646109642   10.28188548090184   -0.64533795931682
C         3.62139867863679    3.78249122355723    3.58935561548372
H         7.27497161568125   10.74131453754106   -0.44710747725727
H         6.86270123461012    4.23407861571120    7.94047056504888
H         6.33818941352409    5.09564819993453    3.85825209977756
H         3.15428908817576    2.80827148156359    3.46714077718519
H         5.96736942839539   10.57246582276951   -1.63402464016459
H         6.04733233636233    5.79090945049386    8.03530705609446
H         6.43719643664879    9.20151785358054   -0.60430656478157
H         7.25540147343556    4.95804703830604    5.39316687776368
H         3.25212562586057   12.26223211408850    3.71076979526999
H         4.46753792089891    3.86090572809341    2.91159111918794
H         6.40430316330695    9.90602371861027    3.58169869436074
H         7.44593715313527   10.02025187353554    2.12638901032275
H         2.88147191174199    4.54067377366775    3.33104019493701
H         2.92569911307271   10.53755252545144    3.82444782739307
H         5.46748117460586    4.42811792888836    9.01877289114651
H         4.51852932205141    8.58395058509143    4.74179910255884
H         4.58595529679194    6.45620118183690    2.54941443181242
H         3.97841859341484    8.11656729382811    2.44767382514139
H         3.86622677301124    6.93821967254076    4.79066453891821
H         4.48895218992156   11.17838471159847    4.37161438648299

