35
CSD_code = KOKBAO | q = 1 | S = 0 | Stoichiometry = C10H13N6O4SZn(1+) | MND = 5
Zn        1.40085655904046    2.93298853021364    1.33740336136676
S         3.37432060908538    2.62868846225104   -0.13795951631982
O         0.77706962510730    4.75200587948245    1.05295259357533
O         2.24291284198325    4.29207677256967    2.51489140617171
O         1.42430327391364    6.25561303307933    2.41378270113257
O         0.12144651070094    2.23112701290413   -0.25467566043195
H        -0.63280332993155    2.82765999937044   -0.32705965853638
H         0.50520825140786    2.17240856877383   -1.13759012148253
N         0.08201591450777    2.36032388705482    2.73891773172419
N        -0.31043826794044    1.20813258202525    4.58844856660423
H        -0.17687397596056    0.58150087596432    5.36611066028898
N         2.47162536675593    1.35628479810421    2.35022193148200
N         3.72295581190360    1.07062207275153    1.99312456336071
H         4.32374039608159    0.51351247181781    2.59866625057031
N         5.52288079335474    1.34069691501635    0.58236670458648
H         5.93544107456651    1.76022964502084   -0.23554057109557
H         6.10527927613997    0.76706799144533    1.17099571758748
N         1.48289509082140    5.14412191951310    2.00920003747488
C        -1.14831315826263    2.72469164480155    3.20132958655751
C        -2.06942523662444    3.65074800734184    2.71292946483152
H        -1.85329593295599    4.22879059229984    1.82866224660861
C        -3.23736731804223    3.80653637457887    3.42357152221306
H        -3.97412272852269    4.51703368110181    3.08368702637312
C        -3.50008294851041    3.06986742967845    4.58783370892248
H        -4.43227962136287    3.23125448276770    5.10572384291696
C        -2.59944227786329    2.15577187961837    5.09156709216364
H        -2.80124631869411    1.59834799545746    5.99196408458041
C        -1.41556896892270    1.99337405273329    4.38450466310804
C         0.56357685571963    1.46104914405529    3.58470619502180
C         1.88653901047603    0.91163810815876    3.40561024339331
C         2.48890258665305   -0.03324331429643    4.39502523093421
H         1.72419092997653   -0.53014915601701    4.98347328578023
H         3.14423764315748    0.50918894223582    5.07851134079276
H         3.07468540569950   -0.80188343677919    3.89244103634279
C         4.25427625654049    1.63782215490491    0.87170273139993

