42
CSD_code = KOKDOD | q = 0 | S = 0 | Stoichiometry = C15H15N5NiO6 | MND = 6
Ni        4.20942282637888    7.31330968610172    2.72218350685488
O         2.69172233609367    6.13650415911062    3.87846227062982
O         4.36735694716084    5.00553255166822    3.22653684056342
O         2.76267242740080    4.03254898251173    4.25990380184437
O         5.21318748372304    8.94560976196305    1.56622816277162
O         6.51526436702629    7.38194767077332    2.17640484018313
O         7.30456282306321    9.08125779120224    1.13754016775735
N         3.26570162874425    5.02370324723207    3.79892979368828
N         6.37800398402012    8.48068932482460    1.61568390724388
N         2.46540235864367    8.89998062385358    2.76262399505054
N         4.91863133010522    7.93695473331113    4.28209310603545
N         3.62602279592067    6.57888213064948    1.15789695466262
C         2.41002038386409    9.87674380818492    1.86034262950707
C         1.40779494375304   10.83407882696741    1.84779627076008
C         0.41706026435419   10.77737805531728    2.81474637787787
C         0.47285555693239    9.76099486966684    3.75465424618460
C         1.51265730390728    8.84670949303016    3.69017808253393
C         4.86178461357307    9.20704517587079    4.67663913644456
C         5.51911907929563    9.66321246854358    5.80619307065308
C         6.26826139533718    8.77132207137398    6.55621463623500
C         6.33752875433285    7.45498940251443    6.13198122673144
C         5.65415550315979    7.07918037915045    4.98813131844918
C         4.53523411374909    5.91837838421240    0.44188470026952
C         4.20835637171698    5.21892359900547   -0.70725343142661
C         2.88898411248155    5.19187605119695   -1.12701774918592
C         1.94555534205973    5.86501864556119   -0.36810458696505
C         2.35430944199320    6.54414869771437    0.76682471253089
H         3.21046184590888    9.89496279581509    1.13495718577613
H         1.40786679552352   11.60656415920552    1.09503673442570
H        -0.37907315255347   11.50726475080618    2.83512128466878
H        -0.27598392511090    9.67417756587511    4.52609102924710
H         1.58331014577223    8.02921003966641    4.39285391160183
H         4.29131683717427    9.88857385374739    4.06126124054645
H         5.44657313338789   10.70307428408185    6.08236021169183
H         6.79431892710554    9.09753765115829    7.44037972352854
H         6.92014594745081    6.72367708104425    6.66857713737515
H         5.72429246090213    6.06458765977942    4.61296424892683
H         5.55392696039439    5.92375990207630    0.81297388120029
H         4.97987256422810    4.69827056265715   -1.25113474165315
H         2.60049105691170    4.65043684566376   -2.01503902349335
H         0.90237797539879    5.86162697353273   -0.64131363330215
H         1.63397393871183    7.05665528338731    1.38881282156936

