53
CSD_code = KOKDUK | q = 0 | S = 0 | Stoichiometry = C22H24B2Cl2N2Zr | MND = 12
B         6.48377844973908    4.91169209740804    9.49034769567881
Zr        7.94213052092392    4.16606094709096    6.56573069116422
Cl        7.46011580032084    4.94535867656586    4.41248141562938
Cl       10.00195730502234    3.33046067060565    5.83798014933595
C         6.00687462832210    3.12874380621434    7.61003937337950
C         9.01275198645112    5.22453153628999    8.51160149084584
C         6.80740814897742    2.07700217246477    5.71451827677543
H         6.88417641868074    1.71555075833066    4.69524978153652
C         8.59765627831996    6.70780388999351    6.77153423639267
C         8.61793721499698    7.61456831633627    5.70658393554568
H         9.55475782462248    7.88432824706448    5.23806572373934
C         7.42962416111110    8.15104907944853    5.26442604892607
H         7.42843952389863    8.84641960313266    4.43928716624845
C         5.82121997794948    2.96228625802743    6.20813978472671
H         5.03101313288231    3.40312503777383    5.60881052185430
C         7.61046070626934    1.66682200473732    6.80017730511473
H         8.39014819140184    0.91530873481450    6.76262467694638
C         9.63934465860273    5.98722174409019    7.45285569326728
C         7.15219092218912    2.33627135370745    7.95459184753537
H         7.48742995023643    2.13669393452093    8.96770577226179
C         6.15088917316890    6.92761268927914    6.92295807168867
H         5.20700154779424    6.68697121610660    7.39653169316295
C        11.02340827874555    5.92795485359105    7.26129127720178
H        11.49136908271433    6.51866809519795    6.48560760465562
C         7.34849281647528    6.36607134516034    7.41712973829960
B         5.29850581851764    4.11056139244324    8.61383202606981
C        11.77438159408034    5.09683854145247    8.06186512259387
H        12.84232377709247    5.03517025164168    7.92103424783885
C         9.81509293542995    4.35201896535218    9.28070427017106
H         9.36879824250278    3.75135430664332   10.06425705497414
C         6.21006970557626    7.80036017857799    5.86207986771802
H         5.29946285275005    8.23462104530497    5.47565116999097
C        11.16945859724375    4.30462256327751    9.04800451408476
H        11.78919193742931    3.64424332535859    9.63709731839289
N         3.92550178945530    4.31508683439553    8.58307905884127
N         6.65689351189769    4.98232004899647   10.86728493049245
C         5.75996580427725    4.35993548776680   11.81643423973715
H         4.98423883561965    3.81278839885838   11.28892740622126
H         5.29531707871686    5.11225219787594   12.46185671071747
H         6.30906481772802    3.66321567185579   12.45726071370150
C         2.99257040456723    3.57933816068529    7.75589228473030
H         3.48317145169230    2.71140819455032    7.32533281486232
H         2.60361152659457    4.20911295310887    6.94955849779142
H         2.14489861372536    3.24124759364902    8.35895983890871
C         3.25065280209415    5.32303561965745    9.37152794682208
H         3.97560513157332    5.89005640318814    9.94865981002213
H         2.52950468726290    4.86261509330610   10.05464857867131
H         2.70154153317686    6.01052834726217    8.72056562124616
C         7.59187399956882    5.46757451158549    8.51891875064156
C         7.72325794463634    5.69227950732447   11.54141110550095
H         8.33563856263201    6.22390754408435   10.81914545171909
H         8.35774291788638    5.00326064974425   12.10724090753960
H         7.30208642645685    6.41566914410076   12.24639976808614

