53
CSD_code = KOKFEW | q = 0 | S = 0 | Stoichiometry = C22H24B2Cl2HfN2 | MND = 12
Cl        9.67446389351235    7.38502451243398    5.69289932895894
Cl        7.38168280150656    9.43990458392376    4.49300239820021
Hf        7.82176470820146    8.47222394914508    6.55497146253670
C         6.07362015729010    6.71431072384172    5.76315035874853
H         5.83282986300269    6.42296510601326    4.75072325676152
C         6.94189097576895    6.70396042448406    7.87302721934406
H         7.41152104634107    6.33876023775033    8.77894436123338
C         6.96387427537928    6.04659931891216    6.62137916174674
H         7.50630078561865    5.14123343966746    6.38961398986303
C         5.45883598607882    7.75790077207213    6.48846521249863
H         4.67495296541780    8.39960014584945    6.10691843945120
C         5.96355335236398    7.75785180720005    7.82185625720108
C         9.04418224222943   12.12955380717985    5.68580846849139
H         9.93491916628071   12.37632974807281    5.12701395826263
C         7.86236275962146   12.80331935137795    5.45910553154601
H         7.82344168724263   13.58276800999732    4.71388306105705
C         6.70736270312019   12.49109893239292    6.18110301003394
H         5.79935817740753   13.03983096820250    5.97825305867098
C         6.70558152587937   11.50490725748890    7.14379654307994
H         5.81311753597733   11.29026405588313    7.71766878680863
N         7.66931666177633    9.35461380280506   10.86711053653949
C        10.13734300120611   10.27275081659283    7.11896720601655
C         8.19232032860980    9.74410081649101    8.36638272414034
C         9.60589410511507    9.45182987794124    8.16798251755957
N         4.46503445273351    9.27177527788032    9.27554084106491
C        10.43980240718670    8.50315403613263    8.78343266284488
H        10.05125718293320    7.85897918458260    9.56165390041508
B         5.73795791726759    8.80833103667688    8.97166996052779
B         7.22526123174256    9.34389732254282    9.54910408486435
C        11.47207190005852   10.15110127784741    6.73816310729262
H        11.86977211541492   10.76999595879227    5.94733186412181
C        11.75510710532887    8.40843519770342    8.38578311186176
H        12.40281615586729    7.68239070900314    8.85470765798695
C         6.88723574543874    8.83954929804924   11.97069626049058
H         5.95418279814274    8.42276919186401   11.60347344935131
H         6.66827307424748    9.63180191405396   12.69352920092342
H         7.44199965940619    8.05443534794750   12.49338890899626
C         3.23442701748864    8.76003949454200    8.70929268989587
H         3.43154054415955    7.84965241829657    8.15123558412703
H         2.77466347248301    9.49679112802194    8.04327904253256
H         2.52091902454655    8.53620006146282    9.50750166315425
C         4.20731118746201   10.35660621682209   10.19779046140437
H         5.14501967652280   10.75942548547268   10.56894462878215
H         3.60411286404315   10.01131691522504   11.04345314857095
H         3.65355093736317   11.15653180484145    9.69674091061663
C        12.27046044015274    9.22646169575639    7.37737854383925
H        13.30506311950716    9.11990191951266    7.08932026375709
C         8.93136135987270    9.88921481069630   11.33282918147105
H         9.46568397851045   10.36478680609785   10.51671576809442
H         9.56036504221222    9.10166908056034   11.75833492323142
H         8.75055375009822   10.63322444989446   12.11466653044041
C         7.89456705993123   10.79499497957176    7.39510197837507
C         9.07693807493034   11.12166451443108    6.64691282221628

