83
CSD_code = KOKGUP | q = 1 | S = 0 | Stoichiometry = C42H31ClN7ORu(1+) | MND = 6
Ru        5.42998965665106    5.06900082337046   13.62405560956253
Cl        5.93483482724509    7.28928705794148   12.91524580582348
O        10.95289308062891    4.94690227907088   11.23562298803759
N         6.51547312836625    5.42014740893240   16.57232557077119
N         7.93336482846991    5.06738817200814   14.95736771078972
N         7.20695640292429    4.71339006148947   12.84924314716864
N         6.08064239429980    4.64250576096218   10.89376057519818
N         3.90983237522866    4.86112840606444   10.87488611113866
N         3.65970762629576    5.50373222253373   14.36461707333067
N         4.92417021911683    3.30463492126226   14.37690026787754
C         6.61042408108673    5.30883870892656   15.24250983846778
C         7.75618443650236    5.25883193179668   17.16709875420468
C         8.67610250907455    5.02851075652375   16.12953772882264
C         8.28756273388724    4.90553522961100   13.62261930318760
C         9.55461116449023    4.97940225909268   13.08660513247612
H        10.42936899052503    5.16857745552931   13.68028192745718
C         9.69897320232836    4.87645614203969   11.69360210085011
C         8.56099110105901    4.73807030965865   10.89405646154371
H         8.63797815710561    4.72919623047995    9.82406823600643
C         7.32212840837074    4.68252011894428   11.51514329747621
C         5.70516956394532    4.62814990409004    9.55450704241461
C         4.30731277992411    4.78101574708483    9.55170769274093
C         4.96449218320160    4.78073073911681   11.69289023268359
C         5.31281893716682    5.71597813081158   17.25490284915627
C         4.83642333481069    4.84863956974742   18.22877659595266
H         5.38113227826782    3.94417650749637   18.45752775619194
C         3.66132369409762    5.15403638389049   18.89200904866169
H         3.28808003441755    4.48557057241305   19.65251303630506
C         2.97206012779016    6.31632273147897   18.58749739710305
H         2.06201457553034    6.55524753080675   19.11543303860270
C         3.45235520881113    7.17598945331515   17.61336882321833
H         2.91981518012640    8.08535855019528   17.38258983788602
C         4.62390042471070    6.87967661690858   16.93988296801978
H         5.01696346379448    7.54267545387872   16.18284042288134
C         8.14427477981498    5.30801372082375   18.49522463328143
H         7.43049760605790    5.50938117670157   19.27798308717792
C         9.48239602702813    5.09376877556432   18.76717287341512
H         9.82755880577251    5.12652228473893   19.78818256127955
C        10.39326763987252    4.83179176430173   17.74756638352966
H        11.42721384863616    4.65644240504577   17.99925260971098
C        10.01168991617726    4.79437228936103   16.41797427623533
H        10.73700750784137    4.57916244380963   15.65226399054954
C        11.19134634397700    4.91328392872484    9.84262273322704
H        10.71165827945098    5.75548235331791    9.33703090031319
H        10.85186938710823    3.97109484031002    9.40325301761127
H        12.27048000618250    4.99402318278982    9.73104383120653
C         6.38343635144911    4.47179341998843    8.35525427447913
H         7.44776857988915    4.32105699713010    8.30274185128807
C         5.64207742216695    4.49539609645647    7.18677921097406
H         6.15209493839559    4.37917437209024    6.24354706474083
C         4.26028940495606    4.65586386439878    7.19523617701969
H         3.72260280864713    4.66483261214088    6.26071862652878
C         3.56650433772694    4.79346070637866    8.38238030462534
H         2.49377185461571    4.90052355950642    8.40414970864093
C         2.57514707793234    4.99973474369598   11.31784810029221
C         1.81645508558463    6.08889915458611   10.91185986225802
H         2.25316505622073    6.83575222298117   10.26662180719932
C         0.51222767571371    6.21133340849423   11.35672870571358
H        -0.08090859029170    7.05675053368707   11.04471173504416
C        -0.03043340565941    5.25431811932124   12.19822003207522
H        -1.04951579879319    5.35164272110532   12.53850232931743
C         0.73037457649805    4.16834499195991   12.59822569406657
H         0.30495293912990    3.41703672902025   13.24579628011081
C         2.03545548626681    4.03562806166743   12.15951899833190
H         2.63555028650063    3.18391706977213   12.44974007762684
C         3.05431928638038    4.53592433935690   15.10026372348521
C         1.81252463136238    4.74159846649652   15.70094161960936
H         1.36333514878725    3.96172333415333   16.29320555692149
C         1.16084206837887    5.94351100406423   15.52162874275922
H         0.19787066257140    6.12032058635656   15.97245479176994
C         1.77367211773389    6.91766935866180   14.73915899301434
H         1.29511213516685    7.86651675635233   14.56076793585841
C         3.01269568612272    6.66198414262340   14.19371003139274
H         3.52802807980927    7.40485504596650   13.59658709992201
C         3.79963280225680    3.29062026168224   15.13984534143450
C         3.42840328730533    2.15348251719461   15.85864801973320
H         2.54150741207718    2.17232205586933   16.46976598605930
C         4.20260324114324    1.01344105599427   15.78721926494006
H         3.93222998888375    0.12704874971503   16.33772873822891
C         5.34001274816117    1.03193179778700   14.98318641696699
H         5.96838099220892    0.16143144436748   14.89032332281638
C         5.65807035653799    2.18864377960390   14.30516751622948
H         6.53853200996119    2.23605260639333   13.67375077900771

