60
CSD_code = KOKKUT | q = 0 | S = 0 | Stoichiometry = C14H27AgB10N4O4 | MND = 3
Ag        6.42400897519087    6.08869280401783   11.34073663920465
O         2.86699499348819    5.49307282112119   16.28744788291986
O         5.69478774608138    2.61114748906577   18.34908944352878
O         7.18056596358139    6.62690439606873    9.32245218509128
O         5.14826408590837    7.35280471950653    9.74308866507969
N         4.40027082891241    4.19691221195714   17.38169003892700
N         4.91706244766042    5.60611614309661   14.02212892217240
N         6.74846205391015    4.44650851609700   14.11416567367137
N         6.36490319516241    3.38628702874494   16.33259694598027
C         4.62791803912446    5.04642517263937   20.96585345738521
C         4.01893370514670    5.41463965701065   19.51777976026553
C         3.59039903450794    4.28227342656118   18.59885938140471
H         3.64754828212912    3.31197770436938   19.09708079211968
H         2.56349441173988    4.45468948365968   18.26420860396355
C         3.94447244162145    4.94450151887420   16.28565145148925
C         4.90989353537406    4.93448816613581   15.22126517797706
C         6.03004494708915    5.32154156616452   13.34393013349775
C         6.07523771974196    4.19729748380757   15.27373719555284
C         5.49154291742115    3.35795665245641   17.41566545516280
C         3.87704077114404    6.49825022099349   13.59143688359717
H         2.91840242874950    5.98027611100368   13.59738988638624
H         4.10764497185109    6.84815680365324   12.58138614200505
H         3.80804721416193    7.34672780623990   14.27278058095721
C         8.03222721090441    3.94887227242919   13.68863017567267
H         8.81950235476412    4.26039846037295   14.37423449993602
H         8.23478888248446    4.38064850200339   12.70516851830688
H         8.02810873091386    2.86387228759423   13.59803715598704
C         7.51307485472514    2.50191685944065   16.38361556432872
H         7.47913417311647    1.77780035620197   15.57092417221924
H         7.45851368202742    1.96900418071526   17.33229041044950
H         8.44125116100806    3.06913023389556   16.34921814566347
C         4.82340798348428    3.59361597744630   21.33767207010158
H         3.87483233797980    3.09478908480923   21.53954505516412
H         5.42468348317032    3.52979942063028   22.24298680346735
H         5.34578534079504    3.03960392938311   20.55804642257811
C         6.13551082817239    7.24674150683454    8.99036673706199
C         6.09084397041069    7.87045113077909    7.60758728841468
H         5.28293830229582    8.59374066260413    7.55210711349401
H         5.92017585788187    7.08246439317616    6.87681007370597
H         7.04439521704857    8.34236769349822    7.38718800707999
B         5.68694953192879    5.72682230606816   19.80118076152845
H         6.46451185237825    5.00309031955250   19.29878846891919
B         5.75764883929670    6.22730930023583   21.48189169896272
H         6.65780534183704    5.85486511751355   22.13990939234231
B         4.12157689824932    6.17633813704362   22.14541962816912
H         3.95815587635598    5.77322181770302   23.23726038408062
B         3.01641005461430    5.66048330160949   20.88239227807701
H         2.15599760519541    4.87453177591880   21.03571320623249
B         5.80819260651436    7.43808600436201   20.18157165277125
H         6.78359519726390    8.04358520038892   19.92620049914300
B         4.83284460273552    7.72979342924390   21.65399732310788
H         5.13636048860200    8.54588377158864   22.44361428708915
B         3.12196956896977    7.37057258115368   21.27901183299546
H         2.22706183241030    7.92900430237870   21.79625058773608
B         3.05878139260153    6.84453292275686   19.58317893299796
H         2.14510408902688    6.90051491706684   18.84876414409092
B         4.69150414932341    6.87596253839545   18.91929748245927
H         4.85120020330214    6.97545981731371   17.75570208924982
B         4.16935561928528    8.14156211561042   20.05131008840320
H         4.00305916922637    9.24941546904351   19.69589574967079

