67
CSD_code = KOKMEE | q = 0 | S = 0 | Stoichiometry = C32H24N8O2Ru | MND = 6
Ru        1.26912636008745    6.01271298239224    8.49848153218784
O        -0.13675674359765    4.55247493252392    8.72978537653603
N         1.50855409210906    5.91822954082284   10.47710168069004
N        -0.05286639232955    7.60627825141569   10.38247699087400
N         0.09992309918618    7.45397575674889    9.09990833184546
N         1.16176694156506    1.44261315957752    9.95568527988742
C         2.24109670310355    5.06012446610232   11.18405754180210
H         2.93927905775511    4.45772036305785   10.61462881037610
C         2.12059588575624    4.93258800890502   12.55037192260644
H         2.72882320548061    4.21720564874146   13.07858004458878
C         1.19549614845499    5.73199143734183   13.22966432757676
H         1.08018044274423    5.63970572978393   14.29869787266448
C         0.43770117379742    6.62790394377254   12.51931218424708
H        -0.29771148058773    7.26523890787622   12.98124079767769
C         0.60755266305861    6.70563572306315   11.12507060644795
C        -0.34315822809049    8.52998887622270    8.33406434992681
C        -0.25943024185518    9.83485396646223    8.83091764914669
H         0.12154453914451    9.98472365382977    9.82953142727846
C        -0.64139983176186   10.89821895357279    8.03819225330206
H        -0.56139468539420   11.90468441392060    8.42058987934050
C        -1.11869361343042   10.67906661642543    6.75524894938520
H        -1.40830560327997   11.51406357587682    6.13540908036079
C        -1.23516008043356    9.38425596690397    6.27211162222786
H        -1.62992250163884    9.20999521255881    5.28228415570166
C        -0.85358870764703    8.31186329471996    7.05334201743225
H        -0.98032368818570    7.29868902164911    6.70119655797059
C         0.58053135610159    1.37813693977432   11.13973012362019
H         0.82405889896471    0.50946571926676   11.73552902060749
C        -0.28959748304210    2.35644579235662   11.59381803458360
H        -0.76048025851371    2.27196733814841   12.56195695461107
C        -0.53804663873021    3.44711742314340   10.78446641967728
H        -1.20789777979806    4.24049149808932   11.09075911975765
C         0.09451680181131    3.55378667031457    9.53496808316376
C         0.94133224655895    2.46878691385170    9.16353853312063
O         2.67470792661865    4.55224801798196    8.26703645919872
N         1.37592157876389    1.44233093440633    7.04164454645826
C         1.95719554889320    1.37758811386372    5.85762969239244
H         1.71334521246251    0.50900853861088    5.26183828317492
C         2.82742575590677    2.35574044112976    5.40339640633831
H         3.29796084759208    2.27129045942150    4.43509315223029
C         3.07582828283400    3.44660232921320    6.21250718125068
H         3.74568229557156    4.23991552070893    5.90606569172763
C         2.44311613058952    3.55361757092504    7.46189673384071
C         1.59638615148705    2.46865032446336    7.83359401845622
N         1.02964404678290    5.91835249901126    6.51983066445349
N         2.59105033787991    7.60642654119359    6.61457046531260
N         2.43817255672908    7.45409407710165    7.89711443679884
C         0.29718823402097    5.06023296479763    5.81278296623174
H        -0.40114952040299    4.45791253712986    6.38211438059677
C         0.41779707362905    4.93274314646221    4.44646367248826
H        -0.19031668512774    4.21731080061449    3.91818646647623
C         1.34283608694214    5.73228006873511    3.76724987423658
H         1.45854882760256    5.63972646705401    2.69826894499644
C         2.10067008361407    6.62806846430559    4.47770702191838
H         2.83623172269631    7.26530712915455    4.01587157856218
C         1.93074227309309    6.70573608518524    5.87194503839065
C         2.88120988042956    8.53007762971978    8.66300404416512
C         2.79719304502275    9.83496282800320    8.16629249619637
H         2.41618331547871    9.98484680795215    7.16769622354574
C         3.17869145538473   10.89834048362111    8.95922544696912
H         3.09896116470834   11.90480283578932    8.57672674470221
C         3.65584744650253   10.67917218839055   10.24222249459800
H         3.94585190968524   11.51413453981374   10.86192188615376
C         3.77278586942869    9.38433562911327   10.72514833968310
H         4.16771495159349    9.21005950861402   11.71489798566325
C         3.39159897502215    8.31193141211163    9.94374526441282
H         3.51833156120898    7.29875240622952   10.29589386716395

