69
CSD_code = KOKMII | q = 0 | S = 0 | Stoichiometry = C34H26N6O2Ru | MND = 6
Ru       10.42969171559917    2.39355559336354    0.00032047000136
O         9.79124565284979    0.96399508573574   -1.29141526193803
N         8.67731328653706    2.31258676003854    0.95016723577839
N         9.64287433008608    4.02336583039802    2.14640455912227
N        10.61467747270411    3.83616250665716    1.30496832212979
C        10.59976260690066   -0.03848289684268   -1.56263913825661
C        11.24387042666674   -0.10966204267296   -2.80718184007742
H        11.08440575005420    0.70100003108796   -3.50679669082889
C        12.06429658988139   -1.17175822222037   -3.12606522222101
H        12.56059135548270   -1.19253506588723   -4.08633526162621
C        12.25110366174272   -2.20413558597139   -2.22210158750270
H        12.89369688740584   -3.03633429048381   -2.46902497399601
C        11.60068370647615   -2.16712249531309   -1.00082444701147
H        11.73671188213502   -2.97161166015990   -0.29087613692616
C        10.77999458176007   -1.10597998049734   -0.65011306915861
C         7.68480404505460    1.44362226333220    0.77045416197610
H         7.76387818070190    0.81856383832528   -0.11128984981205
C         6.62802685418942    1.33423417812184    1.64713113206239
H         5.85251183881918    0.60874412006637    1.46557674235874
C         6.58732286461671    2.16371027271187    2.77185482587576
H         5.77218712318336    2.08634399212953    3.47487858345571
C         7.59878197264144    3.06920232141041    2.97062729881372
H         7.63256773810252    3.72838728305784    3.82198217950691
C         8.65094602921493    3.12466135451141    2.04001238514595
C        11.52640510617020    4.88825045794082    1.23253902289380
C        11.10232011620184    6.20829760789880    1.41306786618981
H        10.06400528795677    6.39166421095266    1.64379277724266
C        12.00425436764088    7.24427127057256    1.27502795728640
H        11.67023609410487    8.26333133712408    1.40032818482350
C        13.33108048357180    6.98108981169395    0.97153308520821
H        14.03130396916810    7.79463736950255    0.85658776278861
C        13.76196448155648    5.67064133781681    0.82820893879908
H        14.80051234249695    5.46304891897856    0.61786648168933
C        12.86940889868523    4.62537399094019    0.95961101412928
H        13.20229892433675    3.60002923628704    0.89156966191854
O        11.06784440767774    0.96368618606538    1.29174983461716
C        10.25891286825636   -0.03851189982371    1.56259970177064
C         9.61503848684489   -0.10995270575280    2.80723521849652
H         9.77453996084354    0.70061908052679    3.50694922672605
C         8.79474507527121   -1.17215377096971    3.12606300752484
H         8.29813575945082   -1.19282993670171    4.08616675636490
C         8.60800417432448   -2.20446603141773    2.22201167518481
H         7.96510438333600   -3.03650379569347    2.46868080452566
C         9.25849436143293   -2.16735914801102    1.00077116466307
H         9.12215008111647   -2.97156700431472    0.29055929572325
C        10.07897475057222   -1.10605719029216    0.65008910463394
N        12.18154090361528    2.31220489225484   -0.95036365260756
N        11.21610250143214    4.02315119413366   -2.14628073498146
N        10.24429263324713    3.83584297342972   -1.30482390731193
C        13.17417249315202    1.44345788769756   -0.77043773877298
H        13.09498464062294    0.81833419776930    0.11124476618825
C        14.23106950624835    1.33420494704675   -1.64695952879663
H        15.00653943860966    0.60867104526600   -1.46539471459683
C        14.27175408532160    2.16362461439025   -2.77172823361755
H        15.08698275995613    2.08633835607835   -3.47464549997221
C        13.26032286406427    3.06915709958667   -2.97051454482760
H        13.22663279197507    3.72844802222581   -3.82178675944783
C        12.20801727470633    3.12442917597756   -2.04005204478187
C         9.33263115238074    4.88803006970829   -1.23238934989843
C         9.75670794705474    6.20808745957914   -1.41309507611127
H        10.79502508764487    6.39144756870487   -1.64383460930289
C         8.85476387637541    7.24410120938459   -1.27521518084671
H         9.18879006810685    8.26316290560213   -1.40053772213294
C         7.52793316872102    6.98095751052040   -0.97173191154512
H         6.82770538923041    7.79451974337893   -0.85689114796776
C         7.09704516604461    5.67051755921663   -0.82831434334330
H         6.05848562723734    5.46295920206138   -0.61800246287199
C         7.98961071242270    4.62522045320848   -0.95950959246859
H         7.65670897801452    3.59987938856318   -0.89145897005647

