59
CSD_code = KOKQIL | q = 0 | S = 0 | Stoichiometry = C29H24AgClN2O2 | MND = 2
Ag        2.64539103511336   11.96476148746399    1.85220209276077
Cl        4.44721191842307   13.28982906290119    1.81398107977145
O        -1.77176277212012    3.45691151869002    2.15920738020306
O        -6.81944332755596   10.24607646346391    1.90529988937196
N         0.89010505573269    9.36162833779693    1.98532287140392
N        -0.37277105123821   11.09216253142929    1.86925007613276
C         0.92334427735374   10.71007257286686    1.90139363553574
C        -0.40948041719864    8.89502685363787    2.00900545108470
C        -1.21628363460881   10.00013486566138    1.92954347807799
C         2.04920478198149    8.57254064347273    2.14222346662337
C         3.12755241430642    8.74888673265388    1.28187930315648
H         3.05405804519902    9.45250191650390    0.46161737892285
C         4.27456750782687    7.99471924417273    1.46002135861834
H         5.11151747796337    8.13403575451647    0.79348515084266
C         4.34577707115156    7.06522032402926    2.48384025810196
H         5.24150271295189    6.47856112880467    2.61907616027309
C         3.26830219518207    6.88974110370900    3.33617741510935
H         3.32249445428004    6.16916422209506    4.13803320493951
C         2.12083680299469    7.64375573577154    3.17354964414040
H         1.28518038277410    7.52148024882949    3.84619105580731
C        -0.77467304343980   12.43048581353799    1.67486357145891
C        -0.23849166321247   13.43706299621929    2.47080826094996
H         0.44392471729635   13.18471653126896    3.27340174780596
C        -0.61026329736516   14.75251386340039    2.25230170812637
H        -0.19114483581387   15.53297151461960    2.86826769167166
C        -1.51580611821046   15.06413658038526    1.25221090364430
H        -1.80260911754602   16.09102295051481    1.08439418199609
C        -2.05120239253324   14.05833089330165    0.46468150780506
H        -2.75321821256441   14.29851739114304   -0.31940857179382
C        -1.68077620713201   12.74179990763069    0.66798349396280
H        -2.08327895911392   11.95706600757512    0.04510670854420
C        -0.77157790024962    7.48477836614378    2.07205137216879
C        -0.10938548565355    6.53917679806003    1.28695145437070
H         0.68073934432604    6.85007050553803    0.61978544047135
C        -0.46768518647756    5.21219226270388    1.34200595127046
H         0.03560522738687    4.47569633035213    0.73642950007297
C        -1.49931424967578    4.78692289059942    2.18283399423918
C        -2.16375810306207    5.72631644026155    2.96588349509628
H        -2.96402465670005    5.43417486442555    3.62690170865947
C        -1.79921516173657    7.05837061520235    2.90666367613018
H        -2.31746994772198    7.77839788575900    3.52229750007531
C        -2.67072319092361   10.09175515547537    1.93829409074057
C        -3.32114104402018   11.04315912527140    2.71709300421476
H        -2.74647211595566   11.72176432498327    3.33040885482235
C        -4.70115105343027   11.12802051143986    2.73475276748789
H        -5.16802668494342   11.87765043049998    3.35347092025804
C        -5.46263568141201   10.25342761144096    1.96627429898337
C        -4.81234229993731    9.29312682431948    1.18611851154538
H        -5.41436683195521    8.62213625110085    0.59451732064734
C        -3.43934228206459    9.21360692145561    1.17209033269906
H        -2.94839264141313    8.47212399847930    0.56016008869175
C        -2.81053125379477    2.96406457275877    2.97118598778857
H        -2.60607682116434    3.13420207341412    4.03306007547892
H        -2.84986162716452    1.89296349801812    2.78022970298892
H        -3.77343246648125    3.41368207725445    2.70865977286483
C        -7.53553315295969   11.19461022814223    2.65962240364562
H        -7.35555755601659   11.07382148766734    3.73264043898124
H        -8.58662253193794   11.00549015613317    2.44830148103368
H        -7.28507044572022   12.21746259504080    2.36110429953206

