59
CSD_code = KOKQUX | q = 0 | S = 0 | Stoichiometry = C29H24AgClN2O2 | MND = 2
Ag       -0.00000000000016   11.64069092304170   -4.23375781111735
Cl        0.00000000000004   13.71990812849235   -3.39245311585091
O         6.37374988652070   10.40452439274616   -4.79939669129053
N         1.07054604490035    8.78898755693484   -5.00845815464061
C        -0.00000000000013    9.59444111018452   -4.83809347491294
C         0.68365250813386    7.49629650311221   -5.31079412642739
C         1.64877969756905    6.40061030533002   -5.40540812910283
C         2.52853731389736    6.18900784407231   -4.34520344830645
H         2.47787247769292    6.82628384395731   -3.47421873252022
C         3.45464953639450    5.16586541586776   -4.40024116936280
H         4.13006645541113    5.01046114258477   -3.57234184021414
C         3.51650770475826    4.34201306238898   -5.51198587811155
H         4.24103660496844    3.54281826713557   -5.55401728063250
C         2.65042670616367    4.55038311692640   -6.57130307780120
H         2.70061309181010    3.91627065060729   -7.44398990331862
C         1.72352021132016    5.57551253838478   -6.52196792934168
H         1.07276476559594    5.75161019228093   -7.36417437946607
C         2.41020816574946    9.22228594677360   -4.93836450487862
C         2.84085208848209    9.99056192528309   -3.86533229152050
H         2.15069120906488   10.23900120343082   -3.06695374893443
C         4.15624410677525   10.41355974073131   -3.78720176139528
H         4.45835724996655   11.01090354635177   -2.94270182099109
C         5.06271318730937   10.06245468097799   -4.78348869739762
C         4.62210403649701    9.28951283707350   -5.86171267237919
H         5.33226113198733    9.03045742151117   -6.63023667843599
C         3.31173060331082    8.87802369480280   -5.94204082175022
H         2.98103367200990    8.29471370838266   -6.78754547191410
C         6.87815317695686   11.20459070810802   -3.75450247802128
H         7.93256295987478   11.35242981180152   -3.98171131413342
H         6.78421660594712   10.70438084821386   -2.78555149903795
H         6.37565230207260   12.17545901336945   -3.71515329775368
O        -6.37374988652049   10.40452439274692   -4.79939669129194
N        -1.07054604490038    8.78898755693356   -5.00845815463682
C        -0.68365250813272    7.49629650311030   -5.31079412642118
C        -1.64877969756623    6.40061030532619   -5.40540812909431
C        -2.52853731389642    6.18900784406851   -4.34520344829953
H        -2.47787247769600    6.82628384395608   -3.47421873251508
C        -3.45464953639574    5.16586541586610   -4.40024116936062
H        -4.13006645541430    5.01046114258396   -3.57234184021349
C        -3.51650770475941    4.34201306238984   -5.51198587811083
H        -4.24103660496907    3.54281826713592   -5.55401728063357
C        -2.65042670616388    4.55038311692837   -6.57130307779973
H        -2.70061309180866    3.91627065060922   -7.44398990331744
C        -1.72352021131931    5.57551253838577   -6.52196792933624
H        -1.07276476559541    5.75161019228327   -7.36417437946098
C        -2.41020816574977    9.22228594677239   -4.93836450487690
C        -2.84085208848235    9.99056192528421   -3.86533229152046
H        -2.15069120906547   10.23900120343213   -3.06695374893421
C        -4.15624410677543   10.41355974073257   -3.78720176139617
H        -4.45835724996725   11.01090354635265   -2.94270182099193
C        -5.06271318730920   10.06245468097875   -4.78348869739863
C        -4.62210403649657    9.28951283707312   -5.86171267237932
H        -5.33226113198652    9.03045742151127   -6.63023667843673
C        -3.31173060331060    8.87802369480113   -5.94204082174878
H        -2.98103367200908    8.29471370838205   -6.78754547191320
C        -6.87815317695684   11.20459070810915   -3.75450247802300
H        -7.93256295987468   11.35242981180271   -3.98171131413539
H        -6.78421660594762   10.70438084821513   -2.78555149903952
H        -6.37565230207251   12.17545901337057   -3.71515329775541

