43
CSD_code = KOKSIN | q = 0 | S = 0 | Stoichiometry = C14H20MoN2O6 | MND = 6
Mo        0.23730963614677   12.71395503968767    3.05148956758065
O         0.42845984204380   13.41956021986267    4.73188294669005
O         0.89519652223999   11.47024217635820    1.71408816257293
O        -1.34269347424116   12.25490720856241    3.00544772726155
O         0.68592497203463   14.04292243693605    2.18614034835153
O         2.87996151568280   12.98380096023268    3.29796032153251
O         2.69369972912029    3.17603637731797    0.37785381055421
N         0.90044178894844   10.95673190098107    4.11943305341906
N         1.17591003051907    9.89741061242565    3.30718746192189
C         0.29747699483028   13.04931517652538    5.98679027934887
C        -0.03209730201192   13.98849877275733    6.97413564161355
C        -0.15182769106300   13.60614357018230    8.29252952591167
C         0.05777389682977   12.28089565086721    8.66915858070408
C         0.38158405518968   11.34204211489655    7.71806689253821
C         0.50367210196124   11.69648449907306    6.36535123138092
C         0.82089574801250   10.70830832615522    5.38461346148078
C         1.11847642320212   10.24388990252744    2.06045919378780
C         1.32264928468289    9.22207561969865    0.97823841383287
C         1.68095576204046    7.83911543430353    1.51189400763563
C         1.83785201459797    6.82457019383047    0.38121376001442
C         2.20266769493138    5.44326960635251    0.91531283022829
C         2.34287419676523    4.41416682675432   -0.20180236706505
C         3.74163282797489   12.41893826201390    2.32085682329537
H        -0.19207711914085   15.01151239502453    6.66435381663982
H        -0.40903211051635   14.34081186535135    9.04061849695863
H        -0.03690224656231   11.99432902125521    9.70487980601452
H         0.54140470839961   10.31173579213959    8.00037279975624
H         0.98203009704989    9.68077116763948    5.71254657486952
H         0.39524807307803    9.17935474641329    0.39834677872947
H         2.10138568593173    9.59363140396638    0.30553347168084
H         2.60822924813480    7.90324206556374    2.08151960413795
H         0.90012661229178    7.51096503763630    2.19714647763290
H         2.61505180077535    7.16265187321857   -0.30823443488917
H         0.90339157752670    6.75951983198016   -0.18044956820526
H         1.43638865694053    5.09489341336781    1.60869800428097
H         3.14617071251709    5.48777843047884    1.46075062684414
H         1.39247692499448    4.32755942327606   -0.74883831038282
H         3.11797855555322    4.73879188731684   -0.91220005866146
H         4.66711053752535   13.00036592841433    2.25501845746122
H         3.98006049476002   11.40548762488482    2.64550976024313
H         3.26071863148783   12.38623942743659    1.33794949300837
H         2.77144758399195    2.51205782181987   -0.31436836501161
H         2.58589500480063   13.84621995452167    2.95964489431303

