47
CSD_code = KOKVUB | q = 0 | S = 0 | Stoichiometry = C16H28PSiTa | MND = 12
Ta        6.52541544511934    9.19797535499863   21.96673449632729
Si        6.36026433883047   11.76939046516935   22.70863581916749
P         5.72410545126076    7.11906527525694   19.70843146415242
C         9.39421312341050    9.50548079737652   20.58507506603825
C         9.08844896187714    8.14276306721478   20.75526748754479
C         9.23513751697742    7.83426100636355   22.12352217924614
C         9.63016921499673    9.00268665278364   22.78646164032143
C         9.72942426192407   10.03056941154524   21.83875122094780
C         4.62185616580359    8.82656165165427   24.66829303338100
C         4.06324440343795    8.08378834693355   23.62264992778272
C         4.95334196087508    7.03505357115719   23.31356724159145
C         6.06062902792778    7.14128492886981   24.17947248510965
C         5.85258409271465    8.24832405896593   25.00908143450293
C         4.51539150875154   12.28109003498398   22.85505013830272
C         7.24608468279095   12.00636215901986   24.38374453338317
C         7.15742958702379   12.88659708648474   21.36646217659386
C         3.90015028944070    7.43502163339703   19.66628179251209
C         6.19773852065491    8.12549504396433   18.22738918815019
C         5.73231628461844    5.44359786601355   18.91745982553098
H         9.43036148547693   10.03363084951546   19.64436673434203
H         8.89991301190990    7.42883005339081   19.96699374926609
H         9.16333033705769    6.84950243346471   22.55703138770835
H         9.87053907575909    9.08332838308803   23.83451626990696
H        10.05651783117535   11.03941104797244   22.03461145210611
H         4.16356872351365    9.66954898857835   25.16061947838610
H         3.08961219752610    8.23884308519187   23.18267139941964
H         4.76076199142159    6.21621538570416   22.63589910753600
H         6.87286160092392    6.43601102513472   24.25293897997123
H         6.50129247305809    8.56825045651610   25.80856295002878
H         4.00441333760191   12.21676414256924   21.89772656963352
H         3.98546544292986   11.64016627606516   23.55274613947780
H         4.41773634977723   13.30337303802095   23.20803554317463
H         6.78177170407673   11.39542087208563   25.15250019610642
H         7.21748632201645   13.04017042774968   24.71708868560714
H         8.28801004893579   11.70777330697638   24.31229934986347
H         7.15111380424034   13.92976236806311   21.66819735153510
H         6.62567611919996   12.81765451689345   20.42086483351652
H         8.18899384695776   12.60285789780872   21.18327013871896
H         3.40888013592991    6.78846432091515   20.38992333530035
H         3.70616888953314    8.47107963034230   19.94454457849715
H         3.49401175825697    7.23866183944732   18.67494424445546
H         5.58761437556019    7.85928471994747   17.36537449361112
H         7.24508567392555    7.94816722356122   17.99354645001046
H         6.07125278070036    9.18437945538109   18.45399743908474
H         5.30965653848981    4.72220732482914   19.61402399001399
H         5.15873503614962    5.43240934789423   17.99194797292876
H         6.76102426946335    5.15586317075378   18.70962602923178

