47
CSD_code = KOKVIQ | q = 0 | S = 0 | Stoichiometry = C12H20N8O6Zn | MND = 4
Zn        0.71476893215119    9.68850950491296   10.90696643564677
N         0.56283106661890    9.69277347437843    8.93843627813863
C         1.62259650848914   10.48944315021327    8.79471892114644
O         2.33784394492288   10.69911445503116    9.77948570468395
N         1.89637930638690   11.02494964658878    7.56649813909106
C         3.04790941221599   11.89317755718243    7.41331329313339
H         3.87772955989902   11.47451866342455    7.97876069845269
H         2.82084424510232   12.88875178746558    7.79632115473679
H         3.28516639790082   11.95309924826063    6.35306185747408
N        -0.02182297004784   10.00668774063591    6.71141134184726
C        -0.92007403616108    9.77558080703139    5.59468008947011
H        -0.37938619667359    9.29174214284138    4.78157175018514
H        -1.72530342966958    9.13775510367964    5.95118310665446
H        -1.31629976895225   10.72521171883024    5.23589927227776
C        -0.31871680436062    9.44640414464574    7.95221642602941
O        -1.31255474867878    8.76219972574975    8.12211948839171
N         1.07860171271453   10.60890361072959   12.61495699438674
C         0.45396465453287   11.72085804313685   12.22582266595292
O        -0.21842476619830   11.68294901950170   11.18982872168364
N         0.56384952341613   12.84807258652030   12.99256092873333
C        -0.11129307640679   14.07037485604701   12.59988866345367
H        -0.86565660133255   14.33087185758471   13.34266838247446
H        -0.57600204687082   13.89073194134476   11.63402831014007
H         0.61276583733610   14.88199068220957   12.53636866155009
C         1.35024704744526   12.88359992222790   14.13405824363017
O         1.45829165225968   13.88358590531155   14.80143018169402
N         1.98966207655576   11.70759588115610   14.44937737517765
C         2.83667886894772   11.71570430758859   15.62809314227598
H         2.24631657695400   11.98641136966535   16.50309376920502
H         3.63608187411805   12.44604591956278   15.50506565578210
H         3.24966153634412   10.71612735200163   15.73917395895580
C         1.88542664804220   10.54440951989708   13.69034654322637
O         2.48016795986731    9.52609210503615   13.99764275917845
N         1.72565507232510    7.96908836935961   11.62604570844046
H         2.28580110507395    8.31286322975273   12.41141526553696
H         2.34373868685410    7.48717199124501   10.98190760794826
C         0.68876622505338    7.06793658276329   12.12552980278923
H         0.35863160292667    7.44558407385464   13.09505885317777
H         1.05630643740093    6.04419987416597   12.25358189780817
C        -0.49625582459098    7.07804279863026   11.15764880378926
H        -1.26861570244633    6.38432221734479   11.50661368361288
H        -0.15345246547521    6.75458863453396   10.17307503042080
N        -0.99807903312673    8.44433379034307   11.02667113740235
H        -1.45742754350319    8.55223357014720   10.11803872750487
H        -1.67553377074157    8.65222593860496   11.75255985277473
C         1.07053913517558   10.80684564695963    6.47335429947415
O         1.30197517819623   11.28031953190829    5.38685041446000

