43
CSD_code = KOKWOW | q = 0 | S = 0 | Stoichiometry = C16H22O4Ru | MND = 8
Ru        6.47452085918603    0.31039571434362   25.74084414584223
O         7.73237875041695    1.97581832409240   25.43715995611466
O         5.43496043446445    1.42549614140337   27.14038033584515
O         7.83790732823691    0.10613642033031   27.29907792789126
O         5.30937148572414   -1.21897283900107   26.64030472829350
C         7.82492419940945    2.92619543371501   26.25417816113325
C         8.98491795394670    3.88168263908105   26.02905417177218
C         6.96894400873894    3.22847563976019   27.31645033303247
C         5.84458070485779    2.48371702010289   27.68060321386387
C         5.01944127703266    2.99955817801061   28.84533363187448
C         7.59375790550703   -0.45731077052291   28.39644418386887
C         8.65472332033087   -0.30185963185670   29.47052680846459
C         6.47002991364934   -1.21864748914215   28.72168399586232
C         5.43331765801661   -1.55138460230319   27.84423768994019
C         4.35127548020195   -2.46369792162031   28.39465258443104
C         5.27474853143588   -0.32564268276508   24.05541335329238
C         6.43813380828543   -1.17081436232230   24.13341244723960
C         7.67320207091863   -0.55456600290017   24.00081128917482
C         7.86689042853015    0.59110777480823   23.03611388287225
C         6.61299372827107    1.47648940346389   22.91802699501351
C         5.50447141556818    1.03058777952967   23.84558602838686
H         8.60991309722070    4.88273337601292   25.82831201657634
H         9.58103571567244    3.54236661082580   25.18623468068455
H         9.60876374174350    3.92058171218064   26.91856645371034
H         7.19674197928626    4.10344905061621   27.90592420377551
H         4.65636999058808    4.00206887500689   28.63151997518078
H         5.63214735566150    3.03955077993265   29.74314184093176
H         4.17562067571025    2.33550392120039   29.01313855428015
H         9.04723298952641   -1.27631252290478   29.75225557896361
H         8.22149466875552    0.16285426112664   30.35325670270484
H         9.46301289151920    0.31910935398161   29.09314171002855
H         6.41468130851393   -1.61472788768794   29.72426612624431
H         4.78914105935685   -3.39343100869683   28.75063075075277
H         3.62392075149758   -2.67829533721128   27.61616331609134
H         3.85232873701660   -1.97624923504094   29.22902621346875
H         4.28568846032572   -0.73960613027645   24.23165890351591
H         6.32804190576349   -2.22389879440859   24.38295649916249
H         8.56823546524448   -1.14692955334035   24.17518810646753
H         8.71812431251087    1.18723369638639   23.36645291122161
H         8.12437730534006    0.16339575956882   22.06082837933571
H         6.21813101687716    1.44148732012711   21.89618424603299
H         6.86516108266194    2.51650874303791   23.13189528725822
H         4.65314422647488    1.70774284335369   23.88466167940552

