132
CSD_code = KOKXUD | q = 0 | S = 0 | Stoichiometry = C97H30ClIrOP2 | MND = 6
Ir        8.69709049946420    5.28272759772042    1.65701934318751
P         6.64902061497504    4.08827748387522    1.10801570729022
P        10.77969986810166    4.19268415439055    1.16226844028684
Cl        8.96195193866948    3.85118319371515    3.50667427100016
O         8.37353664968357    6.91466678668767   -0.84130076478652
C         7.89067033143633    6.86031369547482    2.95255837378279
C         9.35082184702795    6.98327471253391    2.88627761495721
C         9.90884880025367    8.18794053840743    2.26681074117084
C         9.10259306832967    9.14072293092336    1.66867533003159
C         7.65970724758039    9.01802816141828    1.73446740254528
C         7.08377510651222    7.94916054288450    2.39668508959352
C         5.94433936915256    8.17219065934767    3.24186559894558
C         6.06693040027480    7.31280695747235    4.38726505098241
C         7.28507502815144    6.56303608190582    4.25015680715702
C         8.05673281583114    6.30541213322879    5.36834532525510
C         9.49898208037904    6.42869240508868    5.30297167570746
C        10.11215056119693    6.80411401161229    4.12269613146412
C        11.19069193553132    7.75048763050004    4.15623518453743
C        11.06569121080503    8.60721205170780    3.00868460671850
C        11.39593879503355    9.95371145466520    3.10622453646040
C        10.56179329034017   10.94034191955447    2.47634040699356
C         9.43129237619029   10.53638651708246    1.77486562360557
C         8.20304536464549   11.27827483197392    1.90528219392580
C         7.11098316990665   10.33895725187343    1.88008717754457
C         5.99625094551020   10.55144061286699    2.68337500910436
C         5.40040561634542    9.44317053896696    3.37832348551428
C         4.96943120537865    9.90628406213270    4.67356143660234
C         5.09085877298331    9.07870164217533    5.78079349956360
C         5.64611819408641    7.75601795077075    5.63567435800515
C         6.44484303067176    7.47757435050100    6.79821354162004
C         7.63230741079193    6.76757107835606    6.66163308332043
C         8.80208530246623    7.17684400549213    7.39675351354921
C         9.95314246717725    6.96506746336084    6.55636215450335
C        11.01109662485636    7.86620683971979    6.59124526679751
C        11.64257941117925    8.26689615293640    5.36407485947424
C        11.97746990084284    9.66525415561354    5.46877044192204
C        11.85735499224641   10.49277190506646    4.36147208870288
C        11.30258569087021   11.81517850153340    4.50627205451100
C        10.50117715078963   12.09153251803744    3.33967662523642
C         9.31622290369271   12.80441141145188    3.46541419263098
C         8.14587741278967   12.39151436081194    2.73158392263694
C         6.99347578046285   12.60670410676113    3.57063264743923
C         5.93922205931447   11.70309827091065    3.54638567731278
C         5.30401208523105   11.30456495208755    4.77822297094121
C         5.55069022609222    9.61744506822799    7.03629258339409
C         6.38827158893333    8.62643494745495    7.66522128995767
C         7.51680011534735    9.02030134339440    8.37201605842789
C         8.74609449337157    8.27893847369280    8.23775927431700
C         9.83964225465445    9.21809531399490    8.26695227487970
C        10.95039192939791    9.01480753932040    7.45868417915079
C        11.54858395084155   10.12842456838435    6.76473611923197
C        11.01402526719995   11.40199257151649    6.90469878448914
C        10.88867164498076   12.26149250473057    5.75393024361176
C         9.65880182014002   13.00178042456601    5.88322694040320
C         8.88783035140411   13.26850334656635    4.75972478615602
C         7.45208768989767   13.14622383926807    4.82480332374358
C         6.84132357621950   12.76186312190586    6.01092069287136
C         5.74745486927903   11.82363310719608    5.98691015836253
C         5.87293684524632   10.96400681782711    7.13760795268092
C         7.04403938037011   11.37174017941921    7.87202291330268
C         7.85019686230640   10.41728070158873    8.47782569625646
C         9.28597231698591   10.53961573691130    8.41282271718675
C         9.86164206405317   11.61180594705610    7.74446284566136
C         9.02434873012124   12.60096866573160    7.11372483303835
C         7.64225730230589   12.48323455333197    7.17634513973847
C         8.52267434903007    6.30201596632228    0.12373329506575
C         5.19657050581063    5.15033939984453    1.42108378382362
C         4.24148048771523    4.90702531443904    2.40015453831862
C         3.22993669786318    5.82580861779496    2.62559097715285
C         3.15727409123299    6.98680843190440    1.87658275871203
C         4.09696320165143    7.22693210318784    0.88602452000078
C         5.11333904115908    6.31938284712906    0.66478008231396
C         6.41395070303928    3.69648818607932   -0.65842169167631
C         7.52797064235229    3.57021254144683   -1.48070325239680
C         7.37365047536121    3.26513815324051   -2.82103223763793
C         6.10487728235708    3.08775202807002   -3.34758819876738
C         4.99072153897055    3.21229085479552   -2.53180993818756
C         5.14108334650056    3.51366337296219   -1.19108963907289
C         6.24529618407776    2.52309564199364    1.93500412499266
C         6.10946894847542    1.33156246041830    1.22954714794277
C         5.87375829257871    0.14979227654847    1.90880414919347
C         5.78559761130614    0.14452541593493    3.29094350809272
C         5.93574391896446    1.32623120524347    3.99799467785726
C         6.17040538404242    2.51156925629597    3.32716964257721
C        10.87702571791216    2.39064021794891    1.38609299574987
C        12.07406716366382    1.75966179492610    1.71205329952108
C        12.10754148377290    0.38543182965865    1.86418100936189
C        10.95492447577413   -0.36466934511394    1.69253774334925
C         9.76467489883090    0.25990078892779    1.35759563038623
C         9.72833905341546    1.63236876311716    1.20042351445836
C        11.51601910746485    4.41716146869237   -0.49745613183773
C        11.47043284267365    5.69211845130066   -1.05811337779240
C        11.98887573293232    5.92580288261074   -2.31701528859103
C        12.54333311395412    4.88209690112513   -3.04079964208408
C        12.57461852680062    3.60879584392512   -2.49865104134335
C        12.06398907254338    3.37350992522100   -1.23359108132974
C        12.07895699436774    4.83405743936241    2.26921374358509
C        12.16397349687692    4.34037562143684    3.57004162720520
C        13.04624199021996    4.90355180701557    4.47255348562464
C        13.85089000104956    5.96480406354632    4.09256059918062
C        13.77629558094544    6.45449731872006    2.79949140320879
C        12.89325849362702    5.89779446725770    1.89191421527010
H         4.27752163242828    4.00043062299077    2.98603725864981
H         2.49682654256725    5.63146941823927    3.39484620711875
H         2.37259310016181    7.70424402011813    2.06396445043998
H         4.04492539423447    8.12986225902293    0.29592949700545
H         5.85244039299182    6.50897843375278   -0.10160562418788
H         8.51814898672914    3.72105583682059   -1.06398542367017
H         8.24367848806718    3.17238908966851   -3.45395141723961
H         5.98216109690209    2.85542545595609   -4.39495796437814
H         4.00175293693073    3.07422589308692   -2.94331299350018
H         4.27440459139254    3.61036606460513   -0.55181992004309
H         6.19021654390755    1.32649169378196    0.15119817449535
H         5.76266001862871   -0.77183955492900    1.35543089171378
H         5.60651001751623   -0.78156647321180    3.81709792441019
H         5.88033005142579    1.32307489925666    5.07651702030674
H         6.32012218231491    3.42699516324430    3.88122903511332
H        12.97327056657942    2.34510637803829    1.84913037867135
H        13.03626734050480   -0.10198317032684    2.12323787784741
H        10.98532811545122   -1.43619054974269    1.82460342398111
H         8.86191132513910   -0.31891740660147    1.22852108561494
H         8.79817933118181    2.12957010340735    0.95415206506865
H        11.01790663037019    6.50036896747073   -0.49829038641200
H        11.95403411515809    6.92005193978810   -2.73725060192311
H        12.94352899659122    5.06048822258493   -4.02775045840958
H        12.99820689666904    2.79108691360809   -3.06348697485142
H        12.09057064573872    2.37456278282606   -0.82275610373878
H        11.52881429301823    3.52256513609455    3.87663604920236
H        13.09772738942654    4.51773700282826    5.48010800842255
H        14.53204332915886    6.41110713725024    4.80197260513202
H        14.40157193320135    7.28193997817645    2.49672066831574
H        12.84408406004560    6.29237207325909    0.88773279003827

