88
CSD_code = KOKZAN | q = 0 | S = 0 | Stoichiometry = C32H45F3N2O4SZn | MND = 4
Zn       -0.18546224472189    5.02036002697085    5.92172886086797
H        -0.92833315558058    5.95922606785124    6.78280208824805
S         1.58478481511118    3.48568497903853    7.11216670489290
F         2.73330259007200    3.18715778114964    9.52216495564071
F         3.86532183001033    4.40648893624902    8.14991438315334
F         2.09384030490603    5.19763054105756    9.08557218490652
O         1.79944828721313    4.52764168258269    6.11711235454067
O         0.23904374071967    3.49452665485821    7.62362341776505
O         2.13434168162945    2.20273677121466    6.79100434686019
O        -1.35516316043500    3.17529790129254    5.36868124697901
N         0.84557486211464    5.02124446139271    2.81936345131201
N         0.44105014128061    6.92644790026630    3.68543366796259
C         0.30464979687208    5.60448865865288    3.90501717921443
C         1.28912786891392    5.96031085103207    1.92571339022277
H         1.71677281489244    5.69404329446316    0.98134813531727
C         1.03716168927022    7.16896507677072    2.47689702170516
H         1.21419597137878    8.16095008173988    2.11515306408442
C         2.62720616242645    4.09577121426926    8.55044023177190
C        -2.47201664594402    2.98659086731618    6.25052474593534
H        -3.31883342414542    3.54465719598531    5.84039007670204
H        -2.21301462019912    3.38837084201686    7.23359234140526
C        -2.70635348675604    1.48261719775820    6.33020735778445
H        -3.31171730704504    1.13856518377525    5.48900921975274
H        -3.19009223290542    1.19408073789450    7.25959090064782
C        -1.27750724526386    0.96331431122727    6.20677295041618
H        -0.74401296254508    1.09513693144771    7.14752512520012
H        -1.21473727028574   -0.07566526499216    5.89210855697532
C        -0.70354171985650    1.91608011411397    5.16605887101682
H        -0.93445099391112    1.57385888226782    4.14866216422548
H         0.37406097390921    2.04101601301114    5.26627984792400
C         0.88877110382461    3.62830351442465    2.53775584141103
C        -0.22720482849930    3.04458258649954    1.93303850012364
C        -0.16606378571386    1.69333670958796    1.61656595252634
H        -1.00960056844750    1.21543203709564    1.14189008537801
C         0.96666539947658    0.95364701831244    1.89630896447449
H         0.99753020719188   -0.09703891662777    1.64824172400689
C         2.06713451660659    1.55552450220080    2.47615219743638
H         2.94811060274756    0.96697349001327    2.67120272333684
C         2.05621554045998    2.90543002413887    2.80255102668629
C        -1.45511217135715    3.85171249865187    1.57743995078966
H        -1.33766439306223    4.87205761676522    1.95251064743036
C        -2.71234689185219    3.27737587224774    2.23066393851190
H        -3.57615289165756    3.88395015232356    1.96704801584240
H        -2.59974816906018    3.28835943367052    3.31055353446986
H        -2.89975459713683    2.25828329837007    1.90190736448478
C        -1.61030031733754    3.92021629063129    0.05494536385340
H        -0.71670293076698    4.33930452063575   -0.40339315350983
H        -2.45849213710607    4.54885649392108   -0.20706601256513
H        -1.77524874646487    2.93041886199234   -0.36304375057438
C         3.28967515130157    3.58190601257572    3.35387442668026
H         2.97912876662655    4.46577018372137    3.91815516102884
C         4.08647993711258    2.69335771063269    4.30846233461269
H         3.44470202036635    2.29092036825329    5.08672994517129
H         4.86061854104480    3.28834024553966    4.78808198561033
H         4.57184245221890    1.87457339344437    3.78207263948848
C         4.19310524136594    4.01553735324963    2.19158320329771
H         3.69314549796887    4.72084999862506    1.53266019702069
H         4.48786046924748    3.14808628317867    1.60376676055667
H         5.09138035105934    4.49016602112600    2.57925806822605
C        -0.01995090815441    7.96948177148855    4.53499994374169
C        -1.30859396675774    8.47061389687874    4.33345471341010
C        -1.73952303857455    9.50757512433744    5.14902376145602
H        -2.73604100234887    9.90247560275480    5.03355385860013
C        -0.90297364965308   10.04511036100238    6.10800702141150
H        -1.25066309216273   10.85741522939673    6.72874309702992
C         0.37529772025378    9.54951122460148    6.27710054677083
H         1.01648458939294    9.98449449437679    7.02618208591466
C         0.83900913474331    8.49395290723710    5.50315282503493
C        -2.22085606296796    7.88163354274649    3.28185888846855
H        -1.61498618545719    7.32823318753071    2.55750676264647
C        -3.18720680675539    6.89492413559006    3.94230775658346
H        -3.84103531709021    6.45232877964705    3.19412320842301
H        -3.79862719883567    7.40529427669683    4.68189746602274
H        -2.63163365400637    6.10323564280608    4.44343032604489
C        -2.98717232290283    8.95588174663572    2.50716313266560
H        -2.30793515678891    9.72186775884844    2.13969392454848
H        -3.74051029284537    9.43052828774186    3.12915122297235
H        -3.49226879181200    8.50553138555031    1.65551324244950
C         2.23887081026062    7.95499018094434    5.67999952679532
H         2.27428978154527    6.93587430372193    5.28515639920067
C         2.64264763299664    7.87542722502425    7.15179817182503
H         1.85893908161538    7.39095833676748    7.72810774717153
H         2.83553273771336    8.86111277835081    7.56896502441939
H         3.55039740947700    7.28472066776733    7.24766755563712
C         3.23022048682881    8.82547173925636    4.89965784688964
H         2.99925106252857    8.82675082780423    3.83649355868327
H         4.24120236170473    8.44748166395637    5.03090381416715
H         3.19481420676807    9.85209345266870    5.25901009176937

