53
CSD_code = KOLCOE | q = 0 | S = 0 | Stoichiometry = C22H16HgN6O7S | MND = 3
Hg       -2.66282217781118    6.40863935881041   16.22599405160291
S        -3.02582747793320    4.06908857189698   14.84125641134336
N        -4.00773408310492    5.35557985144656   15.10503677368288
N        -3.65277003794216    8.01528092384896   14.87856423637756
N        -6.72792183871052    8.21177706139696   11.20924652114071
N        -7.63013451561234    7.67376681022208   10.50719586022604
N        -9.80042466979920    9.65542817466830    5.80379249111266
N        -1.64848538709217    6.55066055915022   18.41427496915879
O        -1.82380665917100    4.49570859618054   15.57587369039322
O        -2.86489998272386    3.76442823085592   13.45407358568063
O       -11.00071492870453    9.53269187263912    5.64206850166029
O        -9.04725957107368   10.15800093280933    4.98983530430804
O        -2.76224599551417    6.00991520579642   18.24642743428009
O        -1.09314757008707    6.52586313962813   19.45760652786662
O        -1.17072125168991    7.14796085425573   17.42647158573990
C        -4.85171007637198    0.59604349615765   17.09631932897240
H        -5.28796296493349   -0.23016858893233   17.63740922004175
C        -4.57000410809380    0.46186844017178   15.74575454617085
H        -4.78565043090705   -0.46400883530906   15.23492822537405
C        -4.00755966727568    1.52030414509577   15.05032459597088
H        -3.77007400546569    1.45443784872690   14.00023133660440
C        -3.73480244536165    2.69489887563606   15.72448578662297
C        -4.01271438206153    2.84574730431037   17.07035148038453
H        -3.78713780162424    3.78043581664360   17.56663372329275
C        -4.57564961227655    1.78322032575330   17.75830812634982
H        -4.79597965233910    1.88196779958355   18.80998242660117
C        -4.66373157557199    5.98381180226976   14.09552750001668
C        -5.43844056500463    5.33501061666414   13.13939244879323
H        -5.48743062548104    4.25764005020226   13.16314437730372
C        -6.13892779824871    6.05202248871449   12.18935654599235
H        -6.75206283444440    5.54119922460267   11.46127630667088
C        -6.08546959389308    7.44672753024763   12.13825655555355
C        -5.24283822533664    8.14241609232078   13.05673112325522
C        -4.52625244142635    7.41273819256145   14.02793168324505
C        -5.06439933587769    9.53867509386041   13.02756496029428
H        -5.61655171605075   10.11586684199857   12.30220449030627
C        -4.18760207957313   10.11967477703911   13.90153651607762
H        -4.02047278829666   11.18544959062749   13.89576833227455
C        -3.47036559370927    9.32293479770978   14.81588415619996
C        -2.48443993435940    9.95648872159678   15.73875440246836
H        -1.82037476755632    9.20834087938417   16.17435326735400
H        -3.01040961835929   10.46812323546739   16.54500841263004
H        -1.88933862379015   10.69611672566584   15.20757720244244
C        -8.15474634318783    8.27277112276784    9.41382905029039
C        -9.52763803110151    8.10768994345447    9.14846685098088
H       -10.14722404450793    7.63785671522550    9.89582785210405
C       -10.06476391739164    8.56901422103528    7.97437476143679
H       -11.11674049441259    8.46405865629765    7.75715859588446
C        -9.23955100837123    9.18099847739103    7.02793906769731
C        -7.87416584205425    9.33663521612588    7.26633626243825
H        -7.26518835150396    9.82039194982558    6.51755152412308
C        -7.33600896537577    8.89214027237713    8.44756611834487
H        -6.28120359137345    8.99076999312058    8.65493489483980

