114
CSD_code = KOLFEY | q = 0 | S = 0 | Stoichiometry = C43H66BNP2Ru | MND = 5
C        12.86333643823015   -0.17149219908853    7.77020008358482
C        14.29278593567475    0.22892539268281    7.93266460039753
C        14.70613465622626    1.51323950732800    7.55109003945368
C        16.02895337963055    1.90430926146673    7.71966075558073
H        16.32670009607503    2.90650938987840    7.44274651471387
C        16.95551213833858    1.02193987194816    8.24341148455867
H        17.98356917074699    1.32773564757707    8.37064398106298
C        16.55632599226373   -0.25306017415444    8.61623952090671
H        17.27417720218818   -0.94257500205198    9.03664818497928
C        15.23829144520145   -0.64157078185214    8.46984569671389
H        14.93732131862194   -1.63094236715796    8.79254326245210
C        13.74512513750640   -2.09701541430713    5.55580292736917
H        14.04531977137557   -1.96760113290177    6.59705070402692
C        13.18110300236388   -3.51440652236590    5.41810970939491
H        12.28008143049472   -3.61907619787379    6.01982329577436
H        13.91726266557867   -4.23214368998005    5.77193172437253
H        12.93903393528816   -3.75961695804852    4.38697503656595
C        15.00347831241457   -1.90228637821208    4.70671318771997
H        14.81788662211071   -2.09057496915815    3.65214365662731
H        15.77963180023368   -2.58489852145001    5.04369054197612
H        15.36691632710699   -0.88314374989858    4.81827298989154
C        12.19246267461861   -1.09072860760267    3.91879584063646
H        12.70193803906444   -1.88970408911368    3.37307544502934
C        10.69799231073633   -1.41589865697356    3.93045637266530
H        10.50841380984651   -2.32972903439466    4.49008810988526
H        10.34099817504449   -1.55160400520973    2.91199702796691
H        10.14150814747524   -0.60304131054971    4.38709294089463
C        12.45375821453631    0.21477513163823    3.16861246822885
H        11.93618500046776    1.04880015297693    3.63511615631895
H        12.10481165200312    0.12442125400443    2.14251322669091
H        13.51700784880797    0.44011153108584    3.15480269002342
C        13.97705638216323    2.82132878042946    5.13234520792462
C        15.09458694700051    2.21633620957876    4.57088795850494
H        15.73161423692472    1.58384227451695    5.17493781213521
C        15.40410366696532    2.43427595587490    3.23829298583657
H        16.27968862293477    1.96708393967482    2.80849661870866
C        14.60000050090731    3.24793036863669    2.45788163286471
H        14.84861137028482    3.41631574299515    1.42006155170075
C        13.47479946132648    3.84272399417565    3.00941574232296
H        12.84383561195740    4.47373152742690    2.40015788658078
C        13.16281652457487    3.62639017741768    4.33719442599433
H        12.28380319329008    4.07173475217706    4.78871363075575
C        13.94030565572332    4.21801858928644    7.55053791258693
C        13.46296707852575    4.56138287743105    8.81068323729665
H        12.75318287166313    3.90127552072049    9.29209864426910
C        13.86847061963386    5.73383405661067    9.41929696933257
H        13.49075067796432    5.99342741019943   10.39777291856116
C        14.75697851690494    6.57792863613211    8.77296974900023
H        15.07579171174362    7.49560609338172    9.24584984428369
C        15.23202755591680    6.24566687357504    7.51541580007663
H        15.92203988537052    6.90406896609182    7.00653566085397
C        14.82940781383097    5.07148567526589    6.90389574017185
H        15.20408418107339    4.82512515348020    5.91957109534148
C         8.10415559983869    0.45953242188284    6.37060242505384
H         8.52433873788797   -0.45216403610218    5.92152336263392
C         6.63990292846956    0.17710133243350    6.70075779146921
H         6.54901860194833   -0.57522941274182    7.48569038885403
H         6.15805209984058    1.09359963028554    7.04210905308905
C         5.91482383957457   -0.31045089688118    5.44634068531231
H         6.37385596503012   -1.23864757774160    5.09541414294626
H         4.87034012313261   -0.52539479722860    5.68504326494641
C         5.99011501984452    0.74182151257055    4.34445694209189
H         5.48878608755533    0.37679299108338    3.44517396071649
H         5.47084908043138    1.64520258294939    4.67270803914741
C         7.44481988653278    1.08114295113947    4.03250162821853
H         7.48888636952256    1.86569397554401    3.27430778070592
H         7.94026241364061    0.19619594652475    3.62463176334149
C         8.16977151041213    1.54392531972528    5.29437142748797
H         7.70558392583990    2.46038479889397    5.65826018667861
H         9.21391978302126    1.77912262531599    5.06918158838647
C         9.13108400199601   -0.85607150721931    8.70842339086765
H         8.07375043086233   -1.03189075098795    8.93417221987075
C         9.63705358382404   -2.01967023877111    7.85455141634449
H         9.00926878067078   -2.13574704619540    6.96842374683516
H        10.65438995116549   -1.80990703476884    7.51094157359838
C         9.61910994867250   -3.33565176277676    8.63025762668071
H         8.58591047135729   -3.59111996114654    8.87980678825857
H        10.01577868295829   -4.13763086217707    8.00171617545462
C        10.42920351910518   -3.22691443485450    9.91644105536652
H        11.47504131195392   -3.01878814741131    9.67576975255452
H        10.39579862326645   -4.17331350201826   10.46067228354074
C         9.87149308218603   -2.10195888034151   10.78028465678356
H        10.44968930146088   -2.01402178594453   11.70290227213870
H         8.83953341137845   -2.33668939444778   11.05438801975630
C         9.90988932619245   -0.77762442068621   10.02269075512385
H         9.49877589749806    0.01107465532398   10.65451007427161
H        10.95016583713366   -0.51412931949410    9.81647924674731
C         8.40805502397276    1.92587559300683    9.00846443576077
H         9.21214219212786    2.10968648354189    9.73671370925218
C         7.17451700215341    1.45904137483677    9.78329825283351
H         6.31659265237328    1.35621348893688    9.12028250353968
H         7.34190183312632    0.49729206718667   10.26922953158460
C         6.83931123461004    2.49779332613151   10.85555309118267
H         5.96476725842411    2.16882821060752   11.42274991523047
H         7.67682918713818    2.58260975365803   11.55214139515113
C         6.56829312877579    3.86082175442336   10.22680244191089
H         6.34836544222320    4.59248412328100   11.00741948403521
H         5.69038848903446    3.79113391543074    9.57937776054738
C         7.76993413160299    4.31478621536474    9.40314917607368
H         8.63128011297107    4.45742470396750   10.05827536792770
H         7.55303769195316    5.27130573638163    8.92343547753180
C         8.11155078039549    3.27042254913280    8.34493858101667
H         8.99096098348829    3.58079100693507    7.77316443007916
H         7.26431464919470    3.16943761735205    7.66435619858606
N        12.74127931358135   -1.07026002749568    5.28086709315450
P        13.41461506671016    2.60408066646209    6.86163000529549
P         9.29028917653990    0.79087077217142    7.79862625587958
Ru       11.41087478782023    1.60366815271645    7.24238416227120
B        12.33908410630333   -0.15391712601292    6.24568553169150
H        11.46990234315318    0.67782240569911    5.84319487392946
H        11.25891214310734    2.48847316401990    8.49666662935838
H        10.71586037138494    2.74970526975418    6.46848437711674
H        12.22938066414156    0.60362028787042    8.36970980256393
H        12.70429636255180   -1.13145741243013    8.27652282965211

