65
CSD_code = KOLGAV | q = 0 | S = 0 | Stoichiometry = C30H24N6NiO4 | MND = 4
Ni        3.05830456992729    9.92469449961498    3.51048215386435
O        -1.64448853152050   10.78559702533775    0.92376668739640
O        -1.07110033736583    8.81823384287020    0.26115854148226
N         1.42785972170640   11.19851492168413    3.37302459159344
N         2.25562222596032    8.70800136978077    2.36696690623127
N        -0.88886270700623    9.82614853568328    0.92887156779757
C         0.42508212048368   11.01191876208861    2.57383836710397
C         0.25965852561385    9.88270738658548    1.74868306480667
C         1.15350719035630    8.80671521334268    1.68444663406574
C         3.06236799563868    7.56908199908707    2.24840960684217
C         2.54452246716960    6.28359029589255    2.09473227964344
C         3.40160410919301    5.20157911445994    2.03425557274740
C         4.77207479931702    5.38131792238923    2.13177269921032
C         5.29423093189061    6.65640408606286    2.28349587750536
C         4.44752885044321    7.74547320480089    2.33333222589099
C         1.44462277269614   12.37268764087352    4.14759344556522
C         1.17349777345011   13.62161349931097    3.59428457063342
C         1.22586684209096   14.75179056801387    4.38866983240059
C         1.53617147211852   14.64863668127753    5.73415800581152
C         1.79714811234877   13.40553807057032    6.28995899381165
C         1.75554379089716   12.27208302865346    5.50303759150724
H        -0.38415906557132   11.74212287350127    2.53495729533796
H         0.88998729960694    8.02465943148496    0.97212465060500
H         1.47651168637493    6.13249011451041    2.05744351779110
H         2.99460187208179    4.20847223070146    1.92067740550191
H         5.43321147054005    4.52953471981281    2.09055972004484
H         6.36181490939356    6.80036210812202    2.35624926519470
H         4.85298365894461    8.75562633740553    2.42881667077212
H         0.95524598614014   13.70538326122253    2.53984664839706
H         1.02524418062889   15.71860551398653    3.95226527101277
H         1.57775843748083   15.53466349230444    6.34901011120224
H         2.03548078596322   13.32085477784718    7.33962571175584
H         1.95583507987235   11.29261962479958    5.92010576251147
O         6.69455133944748   11.00319292881619    7.31033234476149
O         6.08170039244178    9.03636485390001    7.93819659111816
N         4.27093111493368   11.14023450717859    4.20845087945183
N         3.34082373089029    8.64804218202270    5.11992480685112
N         6.00660648279363    9.99947518631508    7.19093815507263
C         5.05682733243256   11.03264966661080    5.23863990412656
C         5.07691666520332    9.95198250575104    6.12894315343984
C         4.23403146310232    8.82714978114094    6.04134216839786
C         2.56053837186928    7.47893134458791    5.17457826335121
C         3.12775177283995    6.22603228204104    5.39381024171595
C         2.32400673541056    5.10143460561717    5.41523676079495
C         0.95647969539757    5.21390334117922    5.22945983907735
C         0.38775004984418    6.46085535925711    5.01966644304115
C         1.18301457687414    7.58882866048167    4.98889745255145
C         4.31508909446651   12.28541271313131    3.40279798947451
C         4.51766195168722   13.56641310075684    3.91495100901578
C         4.50004049174692   14.65566884224799    3.06517693186265
C         4.27697453194663   14.48745067119390    1.70800384536163
C         4.07646712108275   13.21683886072398    1.19144880653059
C         4.10285429933345   12.12067260658869    2.03004241885161
H         5.79360622181849   11.81152676702832    5.43623535738814
H         4.34705430355832    8.09444117451435    6.84127949118848
H         4.19719356809324    6.13465828871759    5.51391732285941
H         2.77025990558235    4.13158909168453    5.57556105756055
H         0.33427095292391    4.33218729369001    5.24511337228202
H        -0.67866053972034    6.55285416891169    4.87818248800695
H         0.75609299422955    8.57126083171850    4.82758003823774
H         4.65364007014865   13.70830542773533    4.97619848610845
H         4.65129413390333   15.64529319256598    3.46839388230743
H         4.25815884893876   15.34476360449713    1.05302268895053
H         3.90620401571383   13.08187735591246    0.13382673023887
H         3.96828931420745   11.11418664939528    1.62692983398534

