42
CSD_code = KOLRIM | q = 0 | S = 0 | Stoichiometry = C14H25NORu | MND = 8
Ru        0.89860036018501    2.14652226973941    2.69666965682508
N         2.08138009547673    2.06529163527886    1.53858509136656
O         2.92864242586713    2.01770889195679    0.72651522949038
C        -1.12353772114170    1.24118466911558    3.41065355601952
C        -1.12011562385566    1.27055230238177    1.98929088926621
C        -1.02598965101951    2.64186601027542    1.57710040157021
C        -0.95222831603147    3.45269217630212    2.74142395113341
C        -0.95439157267070    2.57880162696158    3.88653133534864
C        -1.48544535091936    0.05292775823274    4.25196548862789
C        -1.46290987911936    0.12370896325003    1.08503743300650
C        -1.22757050140731    3.13708135396926    0.17479634165959
C        -1.12693791190954    4.94263428512192    2.76784145591526
C        -1.20141218879446    3.02526705850784    5.30398484266175
C         2.01099698633332    3.53370166762789    3.85724783201629
C         3.48013329193122    3.74840520534052    3.51553832711662
C         1.89717007903003    0.65094955092311    3.81668815883120
C         2.01639353739315   -0.63630931988911    3.01072734728629
H        -2.57050190610560   -0.07385036644890    4.24340061520110
H        -1.03768532066019   -0.86436156626452    3.87395413913366
H        -1.17068508110567    0.18687821368536    5.28456473751662
H        -2.53216536641376    0.13990930292810    0.86050112062891
H        -0.92079208890020    0.18230113071798    0.14259335640690
H        -1.23354600432246   -0.83107245591636    1.55325528289059
H        -2.29616980508238    3.25644965000291   -0.02042019244172
H        -0.74702581755713    4.10185513427558    0.02317782555945
H        -0.82843937921818    2.43526877274355   -0.55561376147415
H        -2.18590120213660    5.18553411767173    2.65215125675914
H        -0.78717634406001    5.36708005584108    3.70985142667132
H        -0.58121030775271    5.42348809535546    1.95729759013589
H        -2.27436541939580    3.14233629836112    5.47477208805016
H        -0.82024778864450    2.29883945297002    6.01982934807976
H        -0.71914394273882    3.97962642162629    5.50618727044174
H         1.93907677257872    3.25404923190049    4.91670042165624
H         1.50326336825803    4.49845528448592    3.73223073575239
H         3.92065672847169    4.48161049255350    4.19572487560197
H         4.05274982548466    2.82660407962707    3.60630081740430
H         3.59581270520491    4.12819434306498    2.50089590921936
H         1.28303318193272    0.46494523414788    4.70797292249022
H         2.89503239730077    0.92983108720118    4.16877726633811
H         2.36755890596836   -1.45289994444642    3.64627989188769
H         1.05903457844946   -0.93909213365842    2.58692063230326
H         2.73225925109470   -0.52046603751687    2.19729708565141

