87
CSD_code = KOLSEJ | q = 0 | S = 0 | Stoichiometry = C34H37B10O4PRu | MND = 9
Ru        1.35177665083793    9.74658520398466    8.63184551263649
P         3.44490832558988    9.78988133820376    9.70653159335380
O         0.78477517086556    9.97851070451665   10.79481269202760
O         0.29981868796255   12.03865463865668   10.13294906002192
O         1.67639032805930    7.54602076133146    8.75197714722427
O         1.76362210664123    7.71009884506276    6.54528373127858
C         0.48956124190183   11.15735433190410   11.07212404440254
C         1.89468276246330    7.02126101323440    7.64407237705849
C         0.39476506619776   11.61909981557405   12.45917480693877
C         0.65025957416471   10.73200693936712   13.50379171238309
H         0.86847396506627    9.70084361238162   13.27269221989696
C         0.62884971453795   11.17369818637611   14.81044330516319
H         0.83000158476434   10.47853579965939   15.61301826858059
C         0.35631086537941   12.50375189897585   15.10865207723653
C         0.09590177454351   13.38384780054190   14.06059770248731
H        -0.11994429921386   14.41917975508229   14.28285984111271
C         0.11281126644731   12.95413400220258   12.75159793882104
H        -0.08494815558233   13.63957941701860   11.94223425497471
C         0.33510947610583   12.99395820920996   16.52319467542808
H         0.62600164805725   12.20752351889432   17.21467848102112
H        -0.66481294018388   13.33608128217056   16.78842162184655
H         1.01466900569755   13.83637781170323   16.64446038603238
C         2.34248781925581    5.63101453896757    7.52203469918421
C         2.58063233158838    4.88057619243924    8.67488029843609
H         2.41301078471657    5.33847406505395    9.63718764162693
C         3.02652880726519    3.58118249249220    8.57317823959276
H         3.21203732395140    3.00616575733242    9.46910628665297
C         3.24229580444162    2.99382354673790    7.32828070401279
C         2.99985185187903    3.74635330441527    6.18428479140881
H         3.16098221987403    3.30255220420061    5.21223774746294
C         2.55637855361397    5.05065173987521    6.27226608254747
H         2.37024843495273    5.63061735876568    5.38138245685917
C         3.72517041762282    1.57938804698560    7.23877843446979
H         3.83831861397658    1.26891327431010    6.20342479128190
H         3.02148787074715    0.90782907603373    7.72913215135666
H         4.68622870375178    1.47514381821259    7.74116864434528
C         3.60122236009693   10.97210111657168   11.09748965107878
C         3.34628105723636   12.31667234355778   10.83300320537319
H         3.13406534221446   12.62343187603966    9.81851726962451
C         3.35844023682113   13.24966565586758   11.85252026438575
H         3.15698788049126   14.28761199649808   11.63284103613588
C         3.61732710944141   12.85201600564888   13.15408513097762
H         3.61409329961593   13.57701084195310   13.95414598012641
C         3.87601682409431   11.52002649893589   13.42466266986504
H         4.08116411978449   11.20459303938146   14.43719582150282
C         3.86907464183660   10.58352708498221   12.40514769085322
H         4.07090670349673    9.54707399081484   12.63273172023467
C         3.87791889284996    8.21514868706862   10.53726191386189
C         2.88928034601771    7.62494420102378   11.32442448947857
H         1.92401865849233    8.10539620185802   11.40526561829086
C         3.13440543150403    6.43085038098001   11.97545158175778
H         2.36348090898277    5.97985582236024   12.58412115315284
C         4.36456593804469    5.80490955015369   11.83918371499519
H         4.55445052430372    4.86756039775099   12.34153846178245
C         5.34596786062950    6.38165922797978   11.05243647666502
H         6.30456878207048    5.89597629602746   10.94072203064246
C         5.10844078329653    7.58319716711518   10.40548295779017
H         5.88512487750713    8.02579272987330    9.79842090386771
C         4.95067506283812   10.10886196850505    8.72563214544199
C         5.88095899906897   11.09872639542283    9.01310301349604
H         5.75164627955528   11.72683632649986    9.88248252679340
C         6.97901312634630   11.27805301570534    8.18860562236584
H         7.69897123361085   12.05019078122422    8.41752962737828
C         7.15813472279307   10.47263558664047    7.07719082075360
H         8.01598053184493   10.61703198324729    6.43741255876103
C         6.23392697894350    9.48100962433296    6.78527269975350
H         6.37033865900448    8.85120851323355    5.91868565379118
C         5.13366338150464    9.30563757920102    7.60102391513685
H         4.40522218601859    8.53630979135524    7.37748994924869
B         0.40980110087051   11.57832549388633    8.78146818217941
B         1.27116474125268    9.04601882684043    6.68873347846336
B         1.54732630827898   11.86269803632604    7.55969563955620
B         1.99319153667320   10.56001022233865    6.47951172143730
B        -0.42386067089147    9.32748447887110    7.02550433773553
B        -0.83851598766792   10.56615661020998    8.07014308458590
B        -0.27573859845795   12.19721656095226    7.37099561414651
B         0.47276740198512   10.01548836512590    5.55344756685616
B         0.72202707655220   11.71406676794256    5.98404511371934
B        -0.83848338442025   10.91607786346578    6.30172807783512
H         2.37930815457539   12.67482343661015    7.78439079327333
H         3.10118863373415   10.55882344749939    6.06339010804931
H        -1.05716200171308    8.32598609502492    6.98780005040168
H        -1.77014253318136   10.45648459235811    8.79535212921727
H        -0.83237574395049   13.23252628889693    7.44303310762536
H         0.41422494050430    9.62321715772567    4.44478565202632
H         0.93589429523377   12.50102809867765    5.13322013388271
H        -1.84379236759265   11.07467467756036    5.70802051447382

