61
CSD_code = KOLTOW | q = 0 | S = 0 | Stoichiometry = C30H24Br2N4Ni | MND = 4
Br       -0.16261425977536    7.10143080618198    8.00699261598548
Ni        2.73514251667442    7.23674071889086    3.68769687130202
N         2.58244416449818    8.49414811889422    5.31489243765255
N         1.54158112091501    6.02562514882331    4.44530528242949
C         1.74375266719305    8.31210454069822    6.29936938420850
C         0.94366393868328    7.17977072547777    6.44665980784263
C         0.87750716963189    6.10501949105290    5.57606685392251
C         1.45320834083718    4.87539414951743    3.65946415054425
C         1.29873291604978    3.59079376609371    4.18359525237330
C         1.26364066796248    2.49981673603919    3.33726490142301
C         1.38897487947705    2.66409043116945    1.96741092862687
C         1.54525579275114    3.93530104433217    1.43701910000675
C         1.56631406442964    5.03284507246971    2.27253233023291
C         3.32411558536697    9.68495024571131    5.30158086660941
C         2.74145213297972   10.92674348180866    5.54798739356524
C         3.51441287084791   12.07209082277770    5.51017435460330
C         4.86938082763441   11.99467773801133    5.23672795808789
C         5.45472625994928   10.76098851286236    4.99518350975359
C         4.68999277411519    9.61281437227143    5.02480843622148
H         1.68220940201946    9.06427477481813    7.08655918359358
H         0.19377671038602    5.29844444742551    5.83495263245796
H         1.24551718891636    3.44335140697780    5.25171527777734
H         1.15142645037962    1.50993550734699    3.75356343496752
H         1.36797493907510    1.80473098418473    1.31479004056855
H         1.64209609506004    4.06930628057232    0.36962605368187
H         1.66723951486532    6.03944298446434    1.86150595350438
H         1.67884267412832   10.99461732228007    5.73168001148951
H         3.05298181319109   13.03167171386576    5.69059904329918
H         5.46782037565137   12.89271485631445    5.20660064339589
H         6.51182371182612   10.69579855710176    4.78274534580500
H         5.12897868761856    8.64030183346368    4.83840869911816
Br        6.90496206445018    7.36712855462864    0.57655002463748
N         3.43515883363166    8.44801817093786    2.45854214430477
N         4.35501884018438    5.97785274637974    3.45634409608591
C         4.53235312449320    8.36713196659211    1.74007618513082
C         5.40387344689397    7.29119854091373    1.76250918323305
C         5.29583147765186    6.15839323322122    2.56830688031567
C         4.37534607689361    4.78696770855385    4.19737243238430
C         4.59223163831226    3.54467098357697    3.60412366435778
C         4.58543339840975    2.39917698877529    4.37766888878712
C         4.37285733953945    2.47677087587135    5.74339126035028
C         4.16242449937811    3.71108298958681    6.33943888557604
C         4.16152509537507    4.85937455249377    5.57452647626412
C         2.64608095860855    9.59830349328266    2.40570142362497
C         3.16218322297362   10.88280617213394    2.22555426680887
C         2.31455283099744   11.97332493861398    2.22631395445958
C         0.95175690406693   11.80875064563130    2.41316860688507
C         0.42959039668355   10.53769566273101    2.59610145279331
C         1.26585219537490    9.44065495856211    2.58216780405212
H         4.75822754229185    9.17338637802868    1.04429274279866
H         6.07781039182342    5.40507009936022    2.46582576347084
H         4.72759305616701    3.47621864180996    2.53434613180822
H         4.74121768538246    1.43918619863674    3.90818563685993
H         4.36505674406895    1.57842215808237    6.34210248339854
H         3.99760456810652    3.77653580731383    7.40494680118951
H         3.99857993165793    5.83234281709895    6.02180208782709
H         4.22676094812543   11.03047282269326    2.12388227683991
H         2.72455743313582   12.96308970616338    2.09214629688676
H         0.29825663608467   12.66761706537955    2.41782135450637
H        -0.63230673988100   10.40336561105679    2.74083930370857
H         0.86053746578105    8.43415291998431    2.70447273560946

