61
CSD_code = KOLTIP | q = 1 | S = 0 | Stoichiometry = C18H31N4O6PRe(1+) | MND = 6
Re        8.76221473940500    1.73488076802151    7.14658680026948
C         8.26473712292820    2.80284823588654    5.59243139653942
C         9.30994983055762    0.32630717054244    5.91077585073448
C        10.58527482895138    2.42220467587117    7.04147375676772
O         7.95085776804717    3.41740267062322    4.68308493444018
O         9.64307682942307   -0.45607481913453    5.15034752680387
O        11.64477225568115    2.84496563401493    6.98172848664673
N         9.11782411430717    0.60677580600364    8.97531347635606
C         9.02417526292625   -0.69791345006421    9.23602306833985
C         9.40422398542946   -0.93590892042315   10.56064404941900
H         9.43527183855488   -1.88379292659322   11.05526756063960
C         9.74121170568920    0.29161861182574   11.09105275488932
N         9.56048280658418    1.19765168618648   10.10579226098560
C         8.59397270950186   -1.73453370894080    8.26183464065180
H         8.27061420061909   -1.30172569859313    7.31788956706512
H         7.78871097566792   -2.33457670096671    8.68371285084175
H         9.42738121853360   -2.40518131002646    8.05768269201067
C        10.22075102985540    0.63295309713365   12.45093686135705
H         9.54350928796215    1.32424745190685   12.95240303451902
H        11.21088697955854    1.08607777718352   12.41195782055532
H        10.28459213127102   -0.27416302872221   13.04462248996744
N         7.91865005738132    3.44294713602539    8.64629702465949
C         6.00766610386976    1.85957749677988    8.60852300659242
H         6.35637188066111    1.39560954837544    9.53655325051588
H         4.91267922499758    1.81557654227635    8.60623083159878
C         6.45074436211001    3.32224864138505    8.54130437667183
H         6.14627340711476    3.73381323713468    7.57408271374276
H         5.94274282840939    3.89231702379309    9.32718757127929
N         6.58435553054801    1.11807436081747    7.47453578142441
H         6.04068948347214    1.32796170008396    6.63391082857836
H         6.46567175748298    0.11700805074956    7.63798397101782
C         8.35287919714442    3.32895435678787   10.05533689084827
H         8.44036567948541    4.32219315696629   10.50434476955860
H         7.61244126779679    2.76729865127653   10.63234010573007
C         9.70794267279980    2.62545775526706   10.20145477273235
H        10.40438781660760    2.98236680939302    9.43511193342846
H        10.13076769694665    2.85423078916326   11.17956420334241
C         8.36316336260419    4.75793068196664    8.12358000429112
H         8.25017528991823    4.76426016240462    7.03819867558649
H         9.42992593624722    4.85083654266470    8.33602102563988
C         7.64684135281184    5.98500403508333    8.68629500526226
H         7.29596139366910    5.85088433268083    9.70896149350431
H         6.78907871658335    6.27652213605577    8.08217308203707
P         8.84212605471911    7.38500194272263    8.75620047124529
O         9.67517813404580    7.28352360687120    7.38646887936951
O         9.84710692089787    6.75528141413824    9.84052690242195
O         8.32143916529292    8.71342201442874    9.06529538928846
C         9.43667788628245    8.24747557968550    6.36326628302994
H         9.27333294040536    9.22604609116197    6.82394290051117
H        10.34972573744306    8.26863654258840    5.76401573184331
C         8.23531707006011    7.86677205177315    5.51724001153679
H         8.12095043377729    8.57840815089988    4.70485180369656
H         7.33555666412376    7.88837942469467    6.12926352397944
H         8.36401414326185    6.87147150701212    5.09720800691623
C        10.68247986977264    7.66209887777049   10.56607100459753
H        10.07870010531880    8.51842944593747   10.88100710946028
H        11.01321911177109    7.10421405542849   11.44639318642455
C        11.86233164744790    8.13293613374122    9.73775273791923
H        12.51373458663410    8.75127326444820   10.34904593061128
H        11.50650887887770    8.72032275977789    8.89452505791948
H        12.42633400974966    7.28337096805838    9.36037187139227

