61
CSD_code = KOLTIQ | q = 0 | S = 0 | Stoichiometry = C30H26N4Ni | MND = 4
Ni        0.00221908190977   -0.00219880499456    1.61426723100797
N         0.50977725664309    1.40449552899350    2.87159158816582
N         1.40193516761780    0.52330516947292    0.35839346727379
C         1.50021305992225    2.25480927237247    2.72674583116501
C         2.33058253120853    2.34713413857661    1.61838727212553
C         2.24531671877972    1.51911158036294    0.50775889820715
C         1.44960961953357   -0.21527278452338   -0.82893440760327
C         1.63555010131738    0.37348559845541   -2.08044497447867
C         1.66581733545732   -0.40987775426059   -3.21811720332750
C         1.51637062585712   -1.78360844301331   -3.13045445881360
C         1.33088337645512   -2.37706090747167   -1.89124207782155
C         1.30031606737167   -1.60282484805721   -0.75010659352836
C        -0.23463169646114    1.44626507269919    4.05547537949286
C         0.34636832333280    1.63721147471255    5.30984887637507
C        -0.44292251498881    1.66156262550575    6.44359268502109
C        -1.81492979962052    1.50083873705507    6.34917931503726
C        -2.40065069251369    1.30992192062598    5.10709223907995
C        -1.62050983546925    1.28538641277723    3.96985657484672
H         1.66417493933601    2.98306431104407    3.52242377965268
H         3.09077422479425    3.11193860694958    1.62003318628100
H         2.97343681578914    1.69033654248848   -0.28651750970250
H         1.71634092567376    1.44759220091947   -2.16312371719077
H         1.79831628367387    0.05812098591911   -4.18271479562031
H         1.53807301221098   -2.38931748050298   -4.02413505353516
H         1.21208533775319   -3.44846438131906   -1.81684002324210
H         1.15591343511340   -2.05358182683465    0.22764843433393
H         1.41937540797631    1.72647442742691    5.39796226611864
H         0.01918217356588    1.79814180501831    7.41046603753341
H        -2.42525407700988    1.51795762653713    7.23982000756849
H        -3.47064672447244    1.18224372312234    5.02737816825634
H        -2.06512497896844    1.13699415712825    2.98990490501202
N        -0.50941936426412   -1.40526061882538    2.87128748287578
N        -1.40116952813957   -0.52365792128693    0.35809116593759
C        -1.50106996810215   -2.25432677529338    2.72682413548036
C        -2.33171934366257   -2.34600071004729    1.61871580921220
C        -2.24580678688795   -1.51825169210437    0.50783936544657
C        -1.44893730468229    0.21511872483289   -0.82915464941553
C        -1.63561161235973   -0.37349269391026   -2.08060775284405
C        -1.66615999387996    0.40996131007275   -3.21822014366132
C        -1.51641447920711    1.78364823293137   -3.13048962163748
C        -1.33023452247434    2.37693409713936   -1.89129694272161
C        -1.29918740444904    1.60258890410644   -0.75024754475843
C         0.23479034971963   -1.44693900292134    4.05525447126869
C        -0.34636137723361   -1.63714860463197    5.30968701376851
C         0.44283848940021   -1.66122207987485    6.44349033616909
C         1.81489215997483   -1.50079694313846    6.34914315847590
C         2.40078407785782   -1.31057255323232    5.10703487940878
C         1.62075494476736   -1.28652019802294    3.96971279910214
H        -1.66583204500369   -2.98202056251878    3.52283149561385
H        -3.09282595527178   -3.10989340504149    1.62074719366305
H        -2.97448011361496   -1.68869042124806   -0.28611745605166
H        -1.71675561692062   -1.44757681070511   -2.16330168783651
H        -1.79917379684894   -0.05792806264161   -4.18280233819784
H        -1.53838666433591    2.38945020746908   -4.02410297153304
H        -1.21120016258280    3.44830818730472   -1.81684352499117
H        -1.15405551187019    2.05310605600062    0.22744599587031
H        -1.41939391264467   -1.72605470031162    5.39778621363360
H        -0.01937847946179   -1.79728581567333    7.41038031172435
H         2.42512352867330   -1.51765556098930    7.23985017271342
H         3.47081327864308   -1.18314591736325    5.02736976121069
H         2.06561561307451   -1.13885935726435    2.98969754438370

