32
CSD_code = KOLTOV | q = 1 | S = 0 | Stoichiometry = C8H18N3O2Pt(1+) | MND = 4
Pt        0.32657834476286    4.22882296369129    5.34412847978202
O         0.40774509315075    5.69375092193295    6.66785067820085
O         1.17721135825553    6.23833100889461    8.66612571045752
N         0.95268710161318    3.11151135526541    6.95728896238052
H         0.10072880285041    2.85762896403304    7.47041537567716
H         1.48939052748221    2.25192781492017    6.82364989545573
N         0.17024086863083    2.80073257003369    3.78116338400106
H         1.09472676507884    2.65003574304073    3.36654345124518
H        -0.18814661766754    1.87806334097221    4.03112245890352
N        -0.34527751876102    5.50669285371741    3.90502660728317
H        -1.31118113212809    5.75087789080007    4.15149061846917
H         0.18287391345469    6.38375695847815    3.92415898666591
C         1.06072148467918    5.46042517822013    7.76223146489030
C         1.72723098441654    4.05220531346847    7.80781497873895
H         2.73847193891897    4.15802391966240    7.40601096630067
H         1.79531982710708    3.70998264525055    8.84301496838219
C        -0.71273650136204    3.40198342656664    2.74672596005576
H        -1.73906568986272    3.36475725394546    3.13201006096301
C        -0.30442239348122    4.87166986205601    2.57087531328010
H         0.73192108743442    4.90995671349364    2.21282039092585
C        -1.21772175957779    5.55862061714202    1.55574416596857
H        -0.91090753804762    6.59637900030692    1.42059511348297
H        -2.24499152252047    5.55226340642966    1.92674953356682
C        -1.15636296538607    4.81977073786711    0.21911582262725
H        -1.82949322608300    5.29961239669614   -0.48964019435793
H        -0.14584564088111    4.88332297169024   -0.18754433950298
C        -1.55001024947749    3.35613795451642    0.39112548829459
H        -1.47594265911519    2.84068077303881   -0.56523309101599
H        -2.58696576330337    3.29133442397314    0.72421561452420
C        -0.64286632927754    2.66578355997002    1.40994014158800
H         0.38572361022880    2.67292139580634    1.04171384446017
H        -0.95223420113274    1.62703606411976    1.53604918830595

