57
CSD_code = KOLXER | q = 1 | S = 0 | Stoichiometry = C32H10AuF10N4(1+) | MND = 4
C         3.08080576776365   -3.15269668491248    3.39317450873140
C         2.38073333690434   -3.68926853989663    4.46585021832936
C         1.65872319289238   -4.92393516088828    4.42158992503005
H         1.54338777450801   -5.53771101307029    3.55089958309095
C         1.19523316006494   -5.15843115941855    5.67247265605249
H         0.61657005509870   -5.98895871514538    6.02467611034106
C         1.60731597205387   -4.05713794887141    6.48279064755700
C         1.25209507624707   -3.89379859224310    7.80438023092103
H         0.67577513726399   -4.67844903483315    8.26977116238789
C         1.51928439672005   -2.76616522933829    8.55036291091022
C         1.01774481573783   -2.53941391803777    9.86809751743282
H         0.43333021333635   -3.24406760964747   10.42539879587235
C         1.40885720554582   -1.29448379555894   10.23102647349840
H         1.21682477695282   -0.78671797807359   11.15485949852510
C         2.17655671597212   -0.76284138251068    9.14679000796290
C         2.82420440236147    0.46521409649489    9.17425163666976
C         3.71522692348957    0.87631117073651    8.19303541094346
C         4.50499053945081    2.06814430999391    8.25571254889910
H         4.45414532448298    2.80226832914419    9.03410921599670
C         5.31304871972030    2.06698086224945    7.16902612026284
H         6.04932858097130    2.79211072569849    6.88493174931031
C         4.98820894269417    0.90218564440334    6.40890856143614
C         5.52490263536031    0.61496330352201    5.17230655680128
H         6.29891069456561    1.26733663813176    4.79839138018444
C         5.08276286149413   -0.39373936977818    4.34358863011215
C         5.50510848997594   -0.55600374603726    2.98888081258137
H         6.25218064232554    0.04437975594300    2.50924888625339
C         4.76883721238794   -1.56359111481564    2.46306552327231
H         4.79948902556431   -1.94421324079541    1.46229403406282
C         3.92631126052775   -2.05825359964111    3.50880946418089
C         2.94561826160094   -3.81903808201124    2.07543835864384
C         4.01154546099810   -4.48958486337152    1.48058518713113
C         3.87596307083876   -5.11840128674824    0.24608641638703
C         2.64931316648142   -5.07841394498664   -0.41698422236720
C         1.56856632199709   -4.41434638849431    0.16352183250615
C         1.72647729530421   -3.79797277240060    1.40113426278083
C         2.57926039168757    1.35153665226605   10.33764873249170
C         3.57696796178475    1.63026514882216   11.26843260799350
C         3.33893211254535    2.45787958283850   12.36211591010554
C         2.07682929036914    3.02652971038448   12.53441238155321
C         1.06338106563849    2.75768646289317   11.61428597823623
C         1.32318217927813    1.92210237465532   10.53219355309562
N         2.33971371083418   -3.17800792371909    5.73219158470785
N         2.23464157534695   -1.67679019548805    8.13294142720314
N         4.01374876447416    0.18716940048411    7.04967808742918
N         4.12190268764316   -1.32006478710417    4.64381380661765
F         5.18278335492781   -4.54161417840055    2.11914869381335
F         4.90783487593221   -5.75204978068973   -0.29702398064628
F         2.51038726806108   -5.67138750387747   -1.59254086003508
F         0.39725070457367   -4.37405970474238   -0.45889987790788
F         0.69304265466797   -3.16091139924844    1.95608815210468
F         4.78186701706966    1.07695948707114   11.11269900369108
F         4.30705984356588    2.70481848629746   13.23558302502936
F         1.84070439304049    3.81714148750312   13.56983091193168
F        -0.14078080266293    3.29248116765434   11.77219251796808
F         0.35444244960961    1.66540896423200    9.65051123963054
Au        3.17757107195511   -1.49645311662279    6.38931449229340

