77
CSD_code = KOLXUH | q = 1 | S = 0 | Stoichiometry = C44H8AuF20N4(1+) | MND = 4
C        10.79148923129983    5.80793572829718   14.12789539307579
C        12.08433781156464    5.65885699880623   14.60682411314456
C        14.23489625335830    5.89419021007147   14.93846741107843
C        15.96422006671120    9.17373664335563   12.79741622204852
C        15.57569261835775   10.19303807529782   11.94158262747785
C        14.27468608287268   10.36723085268313   11.49460288883651
C        12.54294606448621   11.26285498772283   10.39816257793944
H        11.90154687523006   11.87825200669111    9.80060582826653
C        12.13156642969984   10.10867008514651   11.13341276841550
C        10.83496987092920    9.61712089364699   11.13734787710154
C        10.43786797207727    8.50604328226896   11.86588977016617
C        10.41766114707354    6.78647064544329   13.21921531663696
C         9.75310172751081    4.86254357888821   14.60599645127343
C         9.81706926450178   10.31497557622676   10.31401315781862
F        10.82159239544857    3.06616771883300   13.53054070617912
F         8.92909835874582    1.32687092921969   14.41260515160624
F         6.86802652072928    2.22910891325225   15.95131411936577
F         6.71153586966716    4.87319238005052   16.59699265944344
F        19.47555480750490    3.50236632520741   15.17825553988913
F        17.47547961652154    5.06626210973676   19.15577521366050
F        19.56164031440380   11.23414737465987    9.36117605912911
F        19.46496568462907   13.83503190942110   10.17052553330962
F        17.48215027536891   14.66256961854642   11.84846580371403
F        15.60521851374121   12.89070136513105   12.70227957734448
F         6.78307697593528   12.27189811228091   10.73964916716936
N        13.16917167766219    6.41551096377732   14.25711771076475
N        15.15292941191840    8.20741087267536   13.32627139335255
N        13.19989919435847    9.57968100594582   11.80464109325705
N        11.22497294717275    7.76215426742988   12.70178714752719
Au       13.18686612760111    7.99109440025869   13.02234819382829
C        13.80818360621873    4.78623973201424   15.73376676493618
H        14.44259467323928    4.18950609870244   16.35708293803687
C        15.54501763762626    6.34416993085704   14.88034099799452
C        17.28925409777267    7.93165576639548   14.10305815021082
H        18.11136279934574    7.51996643632281   14.65264283987024
C        17.29711727091499    9.01014996752470   13.28600589052536
H        18.12740931181006    9.64221123725528   13.04425179159404
C        13.87076394504675   11.41362658954077   10.60903369561982
H        14.51656101069773   12.16420561497204   10.20069636006021
C         9.11638449558161    7.96363091643270   11.83228648195526
H         8.30793766209998    8.33884317245437   11.23824057191162
C         9.10344605148771    6.90131828109228   12.67022534638352
H         8.28261568792313    6.24799877861887   12.88649073774336
C         9.81495847290607    3.50735580587016   14.28828770818359
C         8.84685127846113    2.61158944116113   14.73253223014305
C         7.79113456094010    3.07297836955550   15.51972456979140
C         7.71186597180329    4.42631933418549   15.84991533983636
C         8.68799204779747    5.30495071869474   15.38786948877670
C        16.56907477206038    5.62710046261751   15.68033218910348
C        17.57230843734961    4.88771804315360   15.05772127495901
C        18.53448828831759    4.20364734828729   15.79561319352851
C        18.50413397984647    4.26301407260465   17.18937995889632
C        17.51048269183643    5.00309495494984   17.83118475372787
C        16.55431164219570    5.67216844437290   17.07246551590195
C        16.60799655585479   11.15341379839395   11.47852352200956
C        17.63299517967510   10.74858628421964   10.62634830281623
C        18.59944840816163   11.64412703157538   10.17641869947785
C        18.55077138711066   12.97561222415138   10.59058025803359
C        17.53521451461584   13.39884909431144   11.44882539211280
C        16.57569923461853   12.48712607502077   11.87937021771677
C         9.90147996411649   10.32169713890182    8.92332863455630
C         8.94981441752679   10.96847753903121    8.14022695166372
C         7.88852846081400   11.63369507002231    8.75534826614243
C         7.78844779459881   11.64190723055619   10.14697163894980
C         8.74807151945345   10.98144796958365   10.90939965652253
C        12.47542119879713    4.65291323882325   15.54347611330699
H        11.81869416354863    3.93817213036239   15.99621351425483
C        15.95077398657028    7.43152890454785   14.12181791245845
F         8.61447652349102    6.59759754693708   15.70795389216348
F        17.59902550461720    4.83008314353834   13.72544729848384
F        19.41538290635415    3.61957356151975   17.90099183657300
F        15.60522284178180    6.38294738519924   17.68556337168035
F        17.67670269514500    9.47666249490367   10.22739979099005
F        10.91359873978449    9.68086989542786    8.33435370288597
F         9.05236141973827   10.95448006882456    6.81784946862294
F         6.97964068767038   12.25420290752935    8.02070296978570
F         8.65375139559375   10.99298191800729   12.23966232627908

