62
CSD_code = KOLYEQ | q = 0 | S = 0 | Stoichiometry = C28H20CdN8O4S | MND = 6
C        14.76861146284249   13.39977650246237    8.96964447509776
C        14.69753444308288   12.80792728229307   10.22853231231141
H        14.08698210015988   13.26709911228381   10.99012061323738
C        15.41264716525250   11.64454149696287   10.41204289209474
H        15.38499838872811   11.14929278150825   11.37056176599086
C        16.17906415962225   11.07622577078910    9.38735182257723
H        16.72003818163794   10.16262959453484    9.58257587883490
C        16.26055661526965   11.64879121382393    8.13382071616298
H        16.85019659535690   11.20567250452225    7.34590920201900
C        15.54398510119502   12.81982096532518    7.93805502330374
C        14.55351077586809   14.65682565318447    7.23692640421856
C        14.07245086301847   15.75921281933118    6.45594145750230
C        12.92943359277026   17.53857874249012    6.04609820477142
C        12.08038764092637   18.64487753915632    6.09818484171974
H        11.53561299589437   18.87186918515166    7.00894866806536
C        11.98041782448731   19.39613975779838    4.94652682244690
H        11.33561266706415   20.26107693693733    4.93855728449219
C        12.68712161226857   19.07434147054662    3.78068648970544
H        12.57187158062149   19.70016431316912    2.90824027590547
C        13.52482884672752   17.97888141955415    3.71146397181105
H        14.06436195634570   17.73217705463737    2.80952701322738
C        13.63588649324998   17.21192836796939    4.86119528306554
C        14.96254314131198   17.47512604645519   11.43741895195604
C        16.27496573193829   17.76717500335718   11.07845228387676
H        16.86354378595315   17.05299915203725   10.52233199196560
C        16.78210779627759   18.99297119926015   11.45652779472865
H        17.79635562960330   19.25436714016174   11.19171888675703
C        16.01442625025166   19.91485293729819   12.17221930820861
H        16.45242306532527   20.86552647037271   12.43783517785654
C        14.71272165238438   19.64103357718609   12.54292861065980
H        14.11746539661847   20.35652399592801   13.08802634622444
C        14.19557685728210   18.41093219325864   12.17009159875497
C        13.03377170833994   16.60775756895942   11.76961279828597
C        11.92828332015302   15.68732503077852   11.69053421230308
C         9.89355560415450   14.91187193203016   11.74781780891307
C         8.53810647166153   14.65106842723601   11.87518585161212
H         7.86082630678907   15.39501401832863   12.26442783624107
C         8.09575059630633   13.40781689288985   11.47077963968084
H         7.04530566597889   13.16800248905071   11.54697123051046
C         8.97305494519415   12.44577047760363   10.96159557390340
H         8.57618649181776   11.48576601102981   10.66429659731024
C        10.32198566935180   12.69473947450881   10.82650088406064
H        11.00113610209138   11.95641710056919   10.42890410164215
C        10.78673033832622   13.94763740611647   11.21643476465046
Cd       12.90884379983535   16.26852522571429    9.21662552819803
N        14.17501906689731   14.53199459167982    8.49124255529647
N        15.38656369772913   13.64603280936206    6.84888508950606
H        15.80621792713232   13.51222465568309    5.94400733079537
N        14.35189317488400   16.07337661724580    5.15478328040462
H        14.96206756949738   15.58449016682656    4.52094629635774
N        13.23524784858768   16.61382297213872    7.00145995016405
N        14.20044038867867   16.35889182737532   11.19460262321021
N        12.98175181852966   17.81169314294473   12.40263791532402
H        12.09342982280116   18.31445728007060   12.43580336569665
N        10.65871146924332   15.99838707543363   12.08968541116733
H        10.36395091052878   16.98310043983397   11.97864340329364
N        12.05123847154738   14.47455341541422   11.18507713098332
O        10.94246403074057   16.66608635259601    9.36719747404726
O        10.53307970152402   18.99097293587892    8.74246877312517
O        10.75502509686694   18.38760219766336   11.08059620125454
O        12.68933709841364   18.26784571390579    9.60563312946457
S        11.18758451734291   18.12649755126226    9.69088087332842

