52
CSD_code = KOLZIU | q = 0 | S = 0 | Stoichiometry = C24H20Cl2N3P2V | MND = 4
V         8.09464235340202    5.07460003058279   16.19144263922592
Cl        9.97456384787741    5.08278517171835   15.39947134999707
Cl        7.59101932723393    6.90031361244673   16.97425143988259
N         7.00244665568302    4.61440890272984   15.01653798690858
P         5.85934816497273    3.49658053598729   15.07459232289443
N         7.97126729108805    3.86593373623785   17.33599595502796
P         6.91090669048778    2.67489217541163   17.46591329812894
N         6.27913731856946    2.24605676999215   16.02894828411019
C         4.33206904965562    4.26006206635312   15.68725267228751
C         4.25605286001216    5.63478787441754   15.86293338219687
C         3.12662278797899    6.18413278924639   16.44455597820966
C         2.08546178910077    5.36415856654497   16.84912826934446
C         2.16306851817489    3.99167484624181   16.66873544532003
C         3.28792436905926    3.43545880054101   16.08916750597276
C         5.60107492141643    2.78281173688962   13.43846138464781
C         6.72169199853066    2.18778851500187   12.87017836342407
C         6.63664665552599    1.63501887474062   11.60645337153665
C         5.43564139115256    1.68285177274667   10.91373706715016
C         4.32337469729703    2.28455958537853   11.47949456247649
C         4.40191587925506    2.84174370093988   12.74499337351822
C         7.68368969870993    1.20057727549174   18.15174069266155
C         8.25799901135511    1.30194591998408   19.41279219300961
C         8.89941638419778    0.20639206112927   19.95990531297033
C         8.96557652197403   -0.98101870835702   19.24593468388898
C         8.39500809270145   -1.07609001417102   17.98650541518405
C         7.75241203523691    0.01747716527989   17.43213628967052
C         5.57084405909414    3.17815385641100   18.58317259629540
C         5.36363366005209    4.51685965119672   18.88323693495570
C         3.56613736997787    2.58186699398451   19.75100705696656
C         3.35377878415272    3.91894280075750   20.04982244827824
C         4.25041486422497    4.88359405369681   19.61933066932024
C         4.67378001473743    2.20838470379059   19.01299181291326
H         5.08650650493554    6.25637682395263   15.54703159116555
H         3.06081680181601    7.25247096911984   16.58821870348114
H         1.20890812959553    5.79548585777592   17.30974829658495
H         1.34892203519969    3.35723808684713   16.98692951263904
H         3.37803585118069    2.36645613939896   15.95077466706231
H         7.64395341963306    2.17632025916312   13.43969594687958
H         7.50173654665567    1.17033413954063   11.15674721061332
H         5.36789783885711    1.25238161823398    9.92538659945067
H         3.39296986183532    2.32229191520905   10.93186392260602
H         3.54162402654027    3.31792253402404   13.19519059279795
H         8.19403017399027    2.24360207180149   19.94386812812976
H         9.35002294878911    0.27404049749082   20.93920211367804
H         9.46834535884871   -1.83599087917902   19.67382141816528
H         8.45477203624012   -2.00373038472282   17.43619264262972
H         7.30061223181042   -0.02471316996735   16.45163933262135
H         6.07793686470607    5.25560381035735   18.53573425391003
H         2.86504928551873    1.83360331953178   20.09087289762547
H         2.48457723518717    4.20959326875185   20.62132098728127
H         4.08077428243969    5.92377322712374   19.85483761897395
H         4.85534150333207    1.17263407220991   18.75800280533499

