51
CSD_code = KOMBOD | q = 0 | S = 0 | Stoichiometry = C22H24CrO3Si | MND = 9
C         0.61341899587337    1.54137076813291   -0.71099006042240
C         0.32665017347118    3.04907447588636   -0.43658241255825
C         0.35865500734548    3.29524793247369    1.04406107161283
C        -0.78515223711290    3.09325691347624    1.83868798612939
C        -0.71374116972366    2.98107929015037    3.23561323831541
C         0.57235380186283    2.97407835803807    3.82590646352071
C         1.73050594503328    3.17385261236761    3.07773643155224
C         1.59228799833740    3.46582648347811    1.69684074711330
C         3.08374706091176    2.81412552266854    3.62090918605677
C         3.37006628175345    1.31038835643841    3.32843405804925
C         3.32853448853834    1.08541839879070    1.84568110258778
C         4.46764376177007    1.19858401522030    1.06035666069048
C         4.36158890650217    1.25010294182082   -0.31949769192739
C         3.11584415711921    1.30936905268991   -0.92098733358680
C         1.96322268793548    1.19723400836727   -0.15507530892941
C         2.09249564369049    0.99122492437283    1.21452189608676
Si       -2.29450427919496    2.74547187718791    4.25982603821383
C        -3.57827884689960    3.98316880489091    3.59206569663988
C        -2.88151133660121    0.93890971320619    4.02713868368902
C        -1.91197617516491    3.09543699004951    6.09174924309703
Cr        0.22774740241539    4.93356444679527    2.64739609865886
C        -0.26265655754505    5.91215003248766    4.09993787486195
O        -0.58429278798810    6.60116247368317    4.97334604331913
C        -0.86842393656094    6.11642292471431    1.81138285427093
O        -1.52822183627593    6.93350542241723    1.32309101195741
C         1.36999927552488    6.33314159264563    2.43958285497865
O         2.02927770233796    7.27605651737580    2.31211069023825
H         0.57753046913219    1.37028043627270   -1.78755301773206
H        -0.16536526841103    0.94178884915573   -0.23437185922934
H        -0.64932504408647    3.30301385153473   -0.85486244909582
H         1.08717830102659    3.64755009581020   -0.94239965680877
H        -1.73851374818421    2.93468367780352    1.34466678192235
H         0.66416558808777    2.72123484751006    4.87686653489010
H         2.48696416652405    3.62525587853221    1.10439498266380
H         3.12718876634180    2.97558417683221    4.69988259819717
H         3.86104080470012    3.41764927253250    3.14783409925062
H         2.61418279142694    0.70354472880432    3.83205853338800
H         4.34997836742256    1.05712474276097    3.73503801842567
H         5.43860402369098    1.26344374424580    1.52983675976546
H         5.25385043988058    1.31276393669746   -0.92471116423805
H         3.03808481154631    1.46026580766052   -1.98801502356350
H         1.20494404380922    0.81995922346837    1.81068439904564
H        -4.43120235575055    4.05930797814660    4.25862958801194
H        -3.14291871075719    4.97466440341496    3.49256080590104
H        -3.95679210318452    3.69067768971080    2.61729727668494
H        -3.80822224384551    0.77092511911899    4.56625800952847
H        -3.06561802551241    0.70562727947048    2.98244451295251
H        -2.15328671471553    0.22413102801616    4.39990659617620
H        -2.82500738436080    3.08427038814683    6.67807207460615
H        -1.24387841792967    2.35654179426867    6.52436039297340
H        -1.45706268421210    4.07378620026216    6.21447808206940

