67
CSD_code = KOMCOF | q = 0 | S = 0 | Stoichiometry = C26H35NiO3PS | MND = 5
C         5.70988554546536    3.38789936862256    7.22940510320326
H         5.03350686566370    2.95982843625357    6.48654185738159
H         5.80884127413313    2.75059458247353    8.10661444350071
C         5.52672410375492    4.80354711208345    7.50629236565527
C         5.40425123465362    5.68068500897607    6.39431783048187
H         5.18382383750888    5.27546125252388    5.40345147586597
C         5.43602260509939    7.05650764642549    6.58584044072773
H         5.35004017602212    7.71702477612842    5.73504008195262
C         5.58098198117903    7.57950437999475    7.85698887472234
H         5.61487814013726    8.64925469569380    7.99983100835821
C         5.68499321218256    6.73128510075995    8.95592816226588
H         5.79545181635302    7.15108542083525    9.94495966044693
C         5.66584119595140    5.36565691167562    8.79054865724964
H         5.76121847702907    4.70806449680215    9.64226980789842
C        10.56293253173534    4.11646459567041    6.17342346211518
C        11.90346318815831    4.44959935233738    6.15623400941423
H        12.18838680911279    5.40785537488682    6.56116765977061
C        12.83169005697713    3.57657655676833    5.61973094095489
H        13.88057048315166    3.83514670854225    5.61381728637129
C        12.41908606107447    2.36965289177115    5.06181975525615
C        11.06931010789738    2.04895923026839    5.08019428720156
H        10.75054430066827    1.12220597786234    4.62646730311931
C        10.12763333495520    2.90589767366462    5.65160217721006
C        13.42399388552299    1.44051185766387    4.44966882558916
H        12.94558057433932    0.54661121895206    4.05790339905096
H        14.16412645895250    1.14344429974862    5.19123196503680
H        13.95139355557561    1.93785884554544    3.63716656871045
C         8.01433627904117    1.80813746830969    4.04545234015483
H         8.74503364590625    1.04429765008142    3.76346209719487
C         8.11500027862610    3.00326120444183    3.09662275926940
H         7.45626071802691    3.79712394644197    3.47238046863838
H         9.13416553188968    3.39835957961744    3.10539709315080
C         7.71318301774192    2.61783898222628    1.67681880932771
H         7.76685857283708    3.49368496024300    1.02810511651957
H         8.41352259856943    1.87266930845994    1.29048368253642
C         6.30162087332313    2.04022157771024    1.65840564240988
H         5.59527206467290    2.80158404072724    1.99482574349791
H         6.02809158890386    1.75291518832468    0.64122049975144
C         6.21643537337732    0.82997963932217    2.58240904101817
H         6.89016194410760    0.04952027267424    2.22029487118871
H         5.20269087170798    0.42473906655553    2.57593253079204
C         6.60668027380134    1.21826921706275    4.00642036649518
H         6.54365306735078    0.34462342539990    4.65828817752622
H         5.90994302866049    1.97308372193269    4.38342164157799
C         8.34328527460158    1.00909098807858    6.90692723031861
H         7.28042525679553    0.74566830402080    6.99304226718419
C         9.12143618548322   -0.24008730478946    6.50531928319821
H         8.80254058328261   -0.60152752897686    5.52555734862348
H        10.18796445061065   -0.01595968594270    6.46620361939939
C         8.88945794534698   -1.33050576162946    7.55258004927951
H         7.82726655351195   -1.58378508480455    7.58385900593304
H         9.43956735294414   -2.23179110980395    7.27329495322323
C         9.33883297254483   -0.85601858004310    8.93174760956348
H        10.41410472165117   -0.66530757593258    8.91387759536745
H         9.15046936724868   -1.63745224315857    9.67073492770991
C         8.60757034485268    0.42491176400479    9.32624839371773
H         8.96647052571432    0.77352391973742   10.29582210270422
H         7.53873541374162    0.21849505699864    9.41852640541613
C         8.82944646498152    1.50334814665280    8.27084348523129
H         9.89547369517165    1.73789997659536    8.20836474309494
H         8.31088340682739    2.42926655319239    8.53824391711365
Ni        7.21624347603198    4.18912582488013    6.39146007120149
O         8.44677802577990    5.44840563955499    5.58037717397232
O         8.70747455981469    4.79808772487839    7.91565383373660
O        10.12121750319365    6.56143075893806    6.96838999363433
P         8.35692959452579    2.46793734666362    5.74756054218552
S         9.37644478354395    5.35764984843408    6.73666715763740

