63
CSD_code = KOMHEZ | q = 0 | S = 0 | Stoichiometry = C28H30Br2NiP2 | MND = 4
Ni       -1.74234992728254    1.38749215664010    4.41427323379457
Br       -1.69007208015691    2.90806210152859    2.73612732031925
P        -0.77324363474529   -0.02232583195577    5.77934989164785
C        -0.24527330161654   -1.55660519221604    4.93387034776227
C         0.44304769162694   -1.37100863417049    3.73630735789207
C         0.89624222527520   -2.45282626796591    3.00736707061315
C         0.65520268564978   -3.73917989995285    3.46401764714234
C        -0.04116595047941   -3.93130286684199    4.64438016612301
C        -0.49441110894813   -2.84803093484744    5.37777623772880
C         0.89407838091976    0.66400645043118    6.08668795014292
C         1.75229571564257    0.14784103782751    7.05116371079718
C         3.02140069375818    0.67660152944225    7.19823668681759
C         3.45022271215742    1.70953325976985    6.38037993786238
C         2.60754820818971    2.21475353142498    5.40522872114370
C         1.33635667316124    1.69243894614612    5.26000090113287
C        -1.34158401741677   -0.63770795857522    7.42091406588309
C        -1.52426498603502    0.44731227527975    8.47416116877433
H         0.63072762894241   -0.36237356896300    3.38197783996159
H         1.43683252902969   -2.29560146283491    2.08498526967618
H         1.00696687857615   -4.58890247523971    2.89801618872632
H        -0.23751999398135   -4.93253787369292    4.99914668398857
H        -1.05035285752583   -3.02252676253834    6.28649997392407
H         1.43760787107886   -0.66255230637967    7.69218267712059
H         3.67963332182937    0.27914330941998    7.95714093110435
H         4.44134489585795    2.11951684618914    6.50468972414435
H         2.93370469754796    3.01850570360769    4.76276432907970
H         0.67488703177009    2.10694583662728    4.49983735629358
H        -2.28311856388273   -1.17195851494117    7.25805536345816
H        -0.59417113833331   -1.36429815468249    7.75549152662922
H        -1.71169119703922   -0.01068054513376    9.44394073682889
H        -2.36303583658876    1.09435999717918    8.23382204490984
H        -0.63428420117417    1.06959883876229    8.55029486763656
Br       -1.79477264073774    2.90820238545358    6.09225968948032
P        -2.71122130634349   -0.02243174298273    3.04912713547716
C        -3.23935863581135   -1.55673353567706    3.89449448308773
C        -4.37852596076244    0.66375532163925    2.74140999038492
C        -2.14259187462991   -0.63750175910448    1.40755386054416
C        -3.92699367407668   -1.37105198989545    5.09243490369459
C        -2.99113557739314   -2.84818712094783    3.45016511356030
C        -5.23631251659851    0.14775444383208    1.77644379079962
C        -4.82120621359058    1.69193961541262    3.56821044826797
C        -1.96082033289252    0.44776278151975    0.35435489943289
H        -1.20072825366417   -1.17123587470075    1.57024948741783
H        -2.88961780367099   -1.36450972945801    1.07302282798844
C        -4.38029707917875   -2.45279332612962    5.82142314571346
H        -4.11404124397668   -0.36239333542692    5.44705279855299
C        -3.44453511575977   -3.93138591382842    4.18357587544721
H        -2.43578323560846   -3.02276963679941    2.54109815258615
C        -6.50539905966594    0.67645117949795    1.62899707723216
H        -4.92135153527313   -0.66251910529806    1.13547033385968
C        -6.09240046879470    2.21414894226227    3.42264728792619
H        -4.15998162229919    2.10641598460944    4.32859076058170
H        -1.77552006027423   -0.00998603800519   -0.61594792592793
H        -1.12106773817257    1.09397038907871    0.59348662421069
H        -2.85038259975109    1.07085943530270    0.28002103359445
C        -4.14011971546254   -3.73916941289854    5.36438615938874
H        -4.92029992418500   -2.29548977658069    6.74413567719438
H        -3.24892100740975   -4.93264841758172    3.82847757687837
C        -6.93464711597455    1.70910600444554    2.44701450252321
H        -7.16333762123575    0.27905768521506    0.86983779443507
H        -6.41882072742803    3.01779434570636    4.06505810250037
H        -4.49191573414883   -4.58884367143523    5.93044221037932
H        -7.92575465078423    2.11903930224608    2.32241825346523

