64
CSD_code = KOMJAX | q = 0 | S = 0 | Stoichiometry = C19H34B8P2Pt | MND = 8
Pt        5.00455717323439    5.16079908643686    5.90997148977315
P         2.70297258932561    5.28551645158984    6.34128911211094
P         5.68197900836954    3.84516223787237    7.72679933692593
C         1.59464282661399    5.13422363316411    4.87930600022892
C         1.92129960270659    6.75608368436537    7.12417837478976
C         2.04480580710578    3.88743304021818    7.31560341598695
C         1.23700345720801    3.99814646649031    8.43791315609639
C         0.80033770152218    2.86025690586218    9.09527298028466
C         1.16045751694234    1.60522795972132    8.63847013252241
C         1.96926093525745    1.48596405461902    7.51896972674793
C         2.41090465973104    2.62071260006484    6.86846807577337
C         5.96168068305839    2.03958550720712    7.51948910777959
C         7.28236280987097    4.29816425425156    8.51542059883421
C         4.62119910089004    3.95718218153960    9.20923609644351
C         4.16409505703173    2.88014013709041    9.95423970563708
C         3.36888775484352    3.09343134598550   11.06770774149221
C         3.02798704009318    4.37863308741553   11.44959234391773
C         3.47953711207864    5.46010604629789   10.70911432826147
C         4.26560056892040    5.24694659073932    9.59445694636985
C         5.71747023662372    4.09480866510559    4.00687933858653
C         5.82865020648508    7.27802834045529    5.66677872905072
C         5.52184429434142    8.32402880343520    6.72177944087095
B         4.91173638573488    7.00011908098008    4.40395760629053
B         7.13612536852519    6.44193522259111    5.58752780816111
B         7.01944836436304    4.63695114565688    4.72368568486853
B         4.87967531501010    5.24680258798297    3.39582011205048
B         6.65291202613613    7.59044061392670    4.24028158693114
B         6.64082909676253    4.97667378280856    2.94459871418562
B         5.95039984266203    6.59514405035020    2.99043288840702
B         7.55337409977072    6.13126955454425    3.89053042929959
H         1.76567828391436    5.98348035749453    4.22181970556777
H         0.55082732542713    5.10900252889186    5.19135892477027
H         1.83332062208902    4.22377397043704    4.33573474177713
H         2.32391469299852    6.91383454821656    8.12189797526349
H         0.83908324239334    6.64465348725614    7.17354609790033
H         2.15994627735524    7.62114990430011    6.50765258004953
H         0.95057089770679    4.96775647424223    8.81441531721749
H         0.17401787825076    2.95635552241738    9.97022787554020
H         0.81552485263809    0.72116657331194    9.15409296725981
H         2.25236994036297    0.50677370853346    7.15914002262964
H         3.05250098283697    2.54589510112200    5.99849089160742
H         5.02512321629307    1.54007247918853    7.28395482546798
H         6.40419347952519    1.60100603650508    8.41263552671433
H         6.64538500417355    1.91051509607717    6.68215846510307
H         8.08006065883130    4.16999173643180    7.78756988170252
H         7.46973885514784    3.67332603579396    9.38841576000256
H         7.25308417125378    5.34236596192738    8.81653038458984
H         4.41525563285228    1.87019967002186    9.66929052825709
H         3.01466799904992    2.24891026679234   11.64092350557814
H         2.40928792411679    4.53884831448444   12.32026115588728
H         3.21496244883440    6.46550957941983   11.00509907867174
H         4.61876807252593    6.07929892050453    8.99725378462395
H         6.15295196662096    8.19919882138568    7.60317665532540
H         5.70477863881121    9.32428175225512    6.32446732443442
H         4.48029113741991    8.28816664628778    7.04327622264147
H         5.50490752249266    3.03584221509674    3.89122628892976
H         3.90633936655284    7.61567929631389    4.27815342598793
H         7.96961870196799    6.53782053943897    6.41872131149377
H         7.79606808583679    3.86238953321968    5.17500652144978
H         3.88677751957149    5.04181592393947    2.79123667027823
H         7.01162830880106    8.70143569639260    4.08657506959186
H         7.06152255555021    4.41277210349069    2.00074756283399
H         5.81243134482715    7.14631111304454    1.95282820108632
H         8.67486575291279    6.27498296668779    3.54334374043026

