39
CSD_code = KOMJIF | q = 0 | S = 0 | Stoichiometry = C15H16Cl4N2PV | MND = 6
V         0.90713850940674    3.04566351492319   -3.93993757459987
Cl        1.13428907021031    3.51412751909339   -5.98122948410274
Cl        1.83873823537310    1.07965395290421   -4.24184081696341
Cl        1.26395466737111    2.54021293842082   -1.62710107020470
Cl        0.78243285963729    5.05352410878304   -3.28565640872689
P        -1.76751113138328    1.48276977603029   -3.42061282520855
N        -0.65755232440921    2.54071836185493   -3.82965787651448
N         3.26463074780478    3.59427344264328   -3.78990418091175
C        -2.49721268906021    0.84566509602189   -4.95340464782389
C        -1.58173669502712    0.41994666714081   -5.91269582516999
C        -2.04126427442821   -0.04343950089540   -7.13137206622613
C        -3.40350197259882   -0.07628367969975   -7.39082334285038
C        -4.30883703014858    0.36046626998673   -6.43748944375494
C        -3.85985352700171    0.82906318417021   -5.21409952873453
C        -3.00168825186500    2.27283458818996   -2.36104764369554
C        -4.05524369498593    1.55362237934784   -1.80724538498132
C        -4.96212315134566    2.20065567081969   -0.98769085669961
C        -4.81262278349204    3.55281499514555   -0.71820440488084
C        -3.75567464985024    4.26409715467758   -1.26373173960863
C        -2.84566008080330    3.62715479292466   -2.08898665955419
C        -1.00051019056790    0.10501742175423   -2.51512163860399
C         3.95618248400372    3.41328607646447   -2.89595497389847
C         4.80257423866269    3.17602272263018   -1.77027182379363
H        -0.51998386385789    0.47274070074243   -5.69654585660112
H        -1.33840254995163   -0.37311835337386   -7.88126050603962
H        -3.76081134724904   -0.43562336949228   -8.34428717323258
H        -5.36766868803875    0.34318623067360   -6.64898924017614
H        -4.56037449523798    1.18434786247030   -4.47172144038854
H        -4.15989905908029    0.49766334977866   -2.01598537949653
H        -5.78462781453041    1.65076664361069   -0.55474221834224
H        -5.52230116470401    4.05154408541703   -0.07512456885819
H        -3.63853358381748    5.31427855987655   -1.04381584570040
H        -2.00421127588575    4.15810756170721   -2.51983085717149
H        -0.47113257750796    0.54015683114774   -1.66337562123512
H        -1.74970330418506   -0.61228830488554   -2.18777139725834
H        -0.27072133600740   -0.36489413730422   -3.17749551556791
H         4.17565690484056    2.78871909325377   -0.96476585790063
H         5.56345412738487    2.44038833712581   -2.02835812817262
H         5.27431166231563    4.10585745592568   -1.45505017635228

