43
CSD_code = KOMKIG | q = 1 | S = 0 | Stoichiometry = C10H23CoN5O4(1+) | MND = 6
Co        4.34969100677046    9.59854121173646    3.45304603274885
O         4.84711451668759   10.35981578820716    1.87004533616396
O         4.28597868319509   11.55036240925003    0.11916826407431
O         1.44016334563011    8.92988728166310    1.61384172569069
O         1.29919198096554   10.26504593359060   -0.19027310051746
N         3.66312567516798    8.72157769131782    5.17617100054597
N         3.69852906952068    7.95403019453374    2.57273450673180
N         6.23214436789090    8.84992075662181    3.56606068326245
N         5.11420909912336   11.23912337116452    4.36327739384511
N         2.61211936017373   10.52177848943006    3.12085636291426
C         2.70585650923334    7.66670567094882    4.77034511752745
C         3.30538455077626    6.94871572182500    3.57106260816275
C         4.50957734321784    7.37993922147013    1.49375998660400
C         5.92434897512358    6.99864001425931    1.92244030052387
C         6.74304844478059    8.21253006543052    2.33762544105232
C         7.11119038835326    9.97195114269416    3.94151931900563
C         6.40517780296592   10.85917476682865    4.95641340222233
C         2.58274541722735   11.02639570505998    1.74753585704862
C         3.96768624518637   11.01318460456365    1.14619017625508
C         1.64519251888597    9.94470362955842    0.90502228434677
H         4.40329567796498    8.27487515329886    5.71845611499663
H         3.19374750595186    9.35107003387964    5.82612114037617
H         2.79354917298247    8.25820856251809    2.10518969456271
H         6.29167937925765    8.14537207465365    4.30448039629021
H         4.57073872677754   11.78190064253067    5.03367540218110
H         5.30662138232117   11.86448468119298    3.57502108511948
H         1.88680610076247    9.76652846962865    3.06803398562780
H         2.28717254706886   11.23604439244789    3.77078466910419
H         1.75976115054694    8.12892904535933    4.48535241393309
H         2.51032841059422    6.96348651919787    5.58514527525999
H         2.57327035355427    6.25780601528848    3.14203096458342
H         4.17703654772643    6.37124774667124    3.88903700183278
H         4.57139761173077    8.11799548781418    0.69223578986571
H         3.99865672403551    6.49534447021219    1.09917597425210
H         5.91260661266502    6.25440061541619    2.72129736350673
H         6.41738036165218    6.53922247821423    1.06612280906935
H         7.78530878225080    7.91260444197010    2.49494707659562
H         6.70484988704523    8.95657985361800    1.54099949884103
H         7.29838136699477   10.55445167550422    3.03667515104074
H         8.06866078447412    9.61395238540869    4.33233148013323
H         6.22522817567874   10.31839743496381    5.89002118826765
H         7.02369849445768   11.73384882848666    5.18168423137588
H         2.13504894263008   12.01362532157044    1.63793859497544

