40
CSD_code = KOMKIJ | q = 0 | S = 0 | Stoichiometry = C16H14Cl2HgN4O2S | MND = 4
Hg        0.52923758967101    8.92494161062876    4.38814534646221
Cl       -0.95729043372230   10.42690928308453    5.18360897058151
Cl        2.43996129779351    8.28005369003922    3.24863739825132
S        -0.41097333154389    4.70028648939445    0.64649890075454
O        -3.23203351192304    5.27788499244017    1.61734811469832
O        -3.07045233258892    7.41145227666092    0.92033967120956
N         1.09742135071145    7.09433743373301    6.10536041946902
N        -0.41050401284765    6.83574963762100    3.79449516231591
N        -0.80659433919460    6.56619380288769    2.54927449407399
N         0.59608187616049    4.99388737774159    3.17927537882602
C        -1.59491352098800    5.88738427792452   -0.04666626407899
H        -1.08435751286717    6.81964209916894   -0.28101463886290
H        -1.98390833794103    5.42420608493160   -0.95353878755408
C        -2.72082010651878    6.13607016577843    0.95052984323191
C        -4.02099543209727    7.84600494900891    1.88809940332004
H        -4.75723483453468    7.06253176227039    2.07533446011280
H        -4.49467631241361    8.73620033015112    1.48178150317944
H        -3.49628887786617    8.08504965561473    2.81544126145305
C         1.59913390504929    7.16890967349219    7.32676684353600
H         1.62581732216143    8.15721869092316    7.76511026368016
C         2.06918675226664    6.06337543817946    8.02065481029610
H         2.47766753592937    6.17691606512304    9.01179951793997
C         1.99653913924144    4.82126481858150    7.41102137173644
H         2.34248527165089    3.93403569681021    7.91968581185004
C         1.46567660849181    4.73037012777897    6.13603336902418
H         1.37610815787640    3.77645345278013    5.64107118274601
C         1.03362532689596    5.89699063901359    5.50784623379168
C         0.43681263519678    5.90259732248194    4.18382277532511
C        -0.20535797987935    5.46324400401406    2.17702649099873
C         1.54345660746828    3.95027198091207    3.07607949857069
C         2.88686772011910    4.24689233716277    3.27285079504127
H         3.18177747460610    5.26199543864902    3.49466473443497
C         3.82132115034793    3.23411117734882    3.15837038969866
H         4.86694675902185    3.45577602181926    3.30569041054048
C         3.41829787242452    1.94528908124141    2.84539189806103
H         4.15257648134442    1.15951462554979    2.75479191187451
C         2.07792294884873    1.66385673762407    2.63943182467134
H         1.76575889625396    0.66191177331087    2.38878391424537
C         1.12988714544009    2.66609027945164    2.75237988899433
H         0.08253305193521    2.46022869886665    2.59417542553066

