92
CSD_code = KOMMUW | q = 1 | S = 0 | Stoichiometry = C42H45NP3Ru(1+) | MND = 7
C         9.43882618300774    1.09411878849178    4.82995383957626
H         9.40026997225312    0.75502653450860    3.79236848257439
H         9.85590104661429    0.26691782836565    5.41975345891672
C         8.00974181585522    1.38220819350749    5.27676097544749
H         7.91272709903427    1.41044591152558    6.36543768048937
H         7.33885444886165    0.60535082970917    4.90087615636367
C        11.28015598350366    2.18410192595440    3.74282749084997
H        11.69417822643647    1.16767885145118    3.66987195383504
H        12.11151285712114    2.87561083070421    3.91608409006477
C        10.60683292418820    2.58361157273631    2.43231590575990
H         9.76264894866263    1.93058920198309    2.18967714662488
H        11.33535226248505    2.53264967015146    1.61907817252236
C        11.16257899067758    2.17002729448006    6.14184166514582
H        11.96089183258027    2.91704834825272    6.08988189648448
H        11.63365193885627    1.17752185202544    6.20520177964294
C        10.34016362467344    2.43947350332382    7.39667423018012
H        11.00637624060939    2.48462087197670    8.26233716554925
H         9.61879673908901    1.63979027011047    7.56893755917656
C         6.03177759044125    3.38115648944935    5.69060837744820
C         5.10353188124976    2.36387638694450    5.90072686400090
H         5.26899478852616    1.37956373536330    5.48612393712506
C         3.95771016711992    2.61395495921884    6.63053964224648
H         3.24483103337753    1.82042690642253    6.79667596632448
C         3.71735323235826    3.88127708301582    7.13742838586412
H         2.81786397001088    4.07377199118311    7.70157571053516
C         4.62589570363929    4.90017772530403    6.91119684482599
H         4.43565055593170    5.89128562052185    7.29355382514540
C         5.78189416422079    4.65161728690754    6.19316284766611
H         6.49971578321381    5.44564027936778    6.02425079293284
C         6.70487377460770    2.78281835998888    3.08304072521626
C         5.91356939182610    3.83264210020768    2.61959912123174
H         5.83850299796211    4.73710496574677    3.21036797529618
C         5.22429195246019    3.71408160907207    1.43003950439999
H         4.60224562414906    4.52546603903420    1.08496405701756
C         5.32924913832144    2.55118426090566    0.68315809501723
H         4.78666423104930    2.45363212578289   -0.24428543303164
C         6.12857582710752    1.51318520412493    1.12821733979161
H         6.21286722077995    0.60711385208870    0.54658274490993
C         6.81671389713081    1.62436604187535    2.32424756893549
H         7.42413669019274    0.79384336326275    2.65751980718281
C         8.80380192780809    4.55716927983807    1.26606422432014
C         8.14227618407491    5.78336620358943    1.29126486311174
H         8.30217869495071    6.44316409381859    2.13755785041559
C         7.30758446910568    6.14593307157204    0.25327762091047
H         6.80243772593266    7.09974217416660    0.27210354132984
C         7.12581229615987    5.28258699776142   -0.81616067357674
H         6.47862421298071    5.56336074338875   -1.63292853803903
C         7.77583068311893    4.06076935111281   -0.84044465324757
H         7.63467766089830    3.39040331357708   -1.67508822862085
C         8.61785062418081    3.69340386430919    0.19517918058385
H         9.12334772853334    2.73930445311052    0.15481257672263
C        11.33508143922014    5.32111549654567    2.00938690466453
C        11.87848580964459    6.35582793828265    2.75939873803139
H        11.49360455852399    6.55557008279109    3.74977717080426
C        12.90485998245688    7.12561487908690    2.23903036845568
H        13.32523766486709    7.92711083906585    2.82743660657098
C        13.38805838070957    6.87184420392279    0.96710411204078
H        14.18896618669142    7.47136540901669    0.56247361770281
C        12.83445319673736    5.85314398463912    0.20635787424323
H        13.20017224964297    5.66279456938225   -0.79142689018491
C        11.80812604928518    5.08455982839034    0.71951673234249
H        11.36254870949539    4.30814738529407    0.11196579825543
C        10.57064017216278    5.15378535364320    8.18555393418120
C        10.76852995953371    4.82901368115972    9.52770069870114
H        10.27354586101783    3.96524300095773    9.95284598234572
C        11.57951195937309    5.61722326567662   10.31983435547519
H        11.73023687490367    5.35971431753526   11.35733761375103
C        12.19324411410031    6.74044812519704    9.78559501097004
H        12.82584876789687    7.35515869820459   10.40727867623997
C        11.98578420352563    7.07623371821734    8.45922215825357
H        12.45324003563836    7.95641618241281    8.04437079737171
C        11.17474287498542    6.28764318971045    7.66019533824104
H        11.00470234175949    6.55338945524729    6.62597870979177
C         8.06046469640434    4.02766296840103    8.32879174108678
C         7.57613995349695    5.28246215968117    8.70011050033832
H         8.07255923690464    6.16785963944382    8.32117589053975
C         6.48875169778992    5.39464623412955    9.54194673144460
H         6.13227911733205    6.37019787556739    9.83584507524295
C         5.85692516972958    4.25262567171494   10.00947355949202
H         5.00566425086322    4.33471191065730   10.66737367248192
C         6.32228558569499    3.00520658333492    9.63425582488000
H         5.83404597862263    2.11364110201168    9.99839718331703
C         7.41989467555459    2.88877558373888    8.79834476223137
H         7.77036663904220    1.89886924344786    8.54203001805316
N        10.35883230721156    2.25952004592955    4.90167151248001
P         7.51486048689730    3.06068498318091    4.68936454307609
P         9.95917780743079    4.30587844970886    2.64555535464680
P         9.48315973384805    4.08062563651303    7.18827379329078
Ru        9.41317557144796    4.33137351726479    4.88358041658970
H         8.22013396040340    5.29660661130329    4.68580594586046
H         9.60420248693851    5.84255408085701    5.01011660252404
H        10.89806629419253    4.64795188744439    5.06244045097672

