34
CSD_code = KOMNOP | q = 0 | S = 0 | Stoichiometry = C12H16Cl2PdS3 | MND = 4
Pd        2.06470856677777   -0.12038687817331    0.86428750167460
Cl        3.45905096760493   -0.18308165248172   -0.90111449398558
Cl        2.41635023461982    2.09445454428192    0.99027761839828
S         1.69481028176814   -2.40997612007440    0.57522360678876
S         0.45367461908693   -0.08527342010330    2.58937997268885
S         3.68742847002836    0.94401419097871    5.36444721943078
C         4.27506423888120   -1.39655547921245    2.51245913948746
C         4.69783897585622   -1.06577642845504    3.79528473518352
C         4.81420476670492   -2.06761699661179    4.75714048034759
C         4.50831678592690   -3.37690203430176    4.44218907131381
C         4.05351016279544   -3.69899679762388    3.17304105848919
C         3.93678958583882   -2.71397764879902    2.19755733235164
C         3.39858485631706   -3.05770981423046    0.84842394313307
C         0.86857075917736   -2.84510117152079    2.16389797509848
C        -0.17755485731486   -1.80852686366329    2.52195641206667
C         1.47041583793236   -0.15396609837346    4.11763522435748
C         2.26702283221559    1.13260976392903    4.24563601056089
C         4.95394792251177    0.35590311452788    4.16931039479279
H         4.25173430854648   -0.61841153621157    1.73554337311896
H         5.13492865574950   -1.80510009312244    5.75381792920670
H         4.60876940357793   -4.15047683631444    5.18810756758527
H         3.79827600729055   -4.72182455903896    2.93550762464487
H         3.35467904566529   -4.13544322532099    0.69171928890501
H         3.96673303599308   -2.57649443639012    0.04778626660621
H         0.39584673222694   -3.81995880517360    2.03059477730785
H         1.63731562526857   -2.92259210003516    2.93417160309662
H        -0.62659942482585   -2.02722717394735    3.49198939298537
H        -0.96274007448196   -1.77893976624184    1.76418921155801
H         0.78566879410134   -0.28787077028268    4.95632780483028
H         2.13855435959385   -1.01318083520697    4.05077315978790
H         1.65351831105470    1.93370641238434    4.65467265409509
H         2.65318500776816    1.45025144667592    3.26907343493480
H         4.92650814633555    1.02147887321118    3.30621114521119
H         5.89948705940768    0.46774919492159    4.69828156394694

