66
CSD_code = KOMTIP | q = 0 | S = 0 | Stoichiometry = C23H34CrO7Si | MND = 9
Cr        2.00185968006869    3.89756789437075    0.41859573504596
Si        3.86340149425193    1.44060467414112   -1.73355871690067
O        -0.36726559925464    3.01775478620574   -2.20093257739676
O         1.07702523579701    2.86451247945450   -3.90487398012236
O         0.55019408294481    5.20076861938634    2.66659466956287
O        -0.60460568088302    0.19633707834583   -2.93292181394141
O         3.17956230575034    2.43830520774279    2.72777455956922
O        -0.12046027980164    1.90391912850230    1.00394756235575
O        -1.85188545203703    3.01280124707211   -5.98571267763689
C         1.90046523567095    3.61234580920789   -1.76405258239238
C         3.18913358017398    3.18507375568611   -1.38098554948277
C         3.97522295456382    4.11369638191533   -0.67189624911167
C         3.54130941691548    5.41616330120946   -0.40108099649425
C         2.27174247349855    5.82304555788338   -0.83569151216267
C         1.46970911394321    4.93514086048564   -1.55017878443548
C         0.96262475602012    2.70173778367545   -2.50541815199633
C        -1.14561412855616    2.48611944334455   -3.25486221108545
C        -0.16872552652241    2.48050039257704   -4.45769974041294
C        -1.72193057303141    1.08852458429655   -2.91085668981243
C        -0.54713846113525    3.44205125258790   -5.60844231179147
C        -2.38680755219474    1.16799168934328   -1.53385560092016
C        -2.75715793313353    0.70047820434774   -3.97381006730956
C        -0.77743391056344   -1.07057336951218   -2.34239980957794
C        -0.51969081207938    4.89655515030486   -5.12669656133839
C         0.47670780350808    3.24797601903572   -6.73412684519659
C        -2.46426734504535    3.69161707238839   -7.05708172690425
C         5.66262638897836    1.36700776994449   -1.09302426373947
C         3.87691920122161    1.13484833686941   -3.61679344239533
C         2.85314765669754    0.14767556262555   -0.75816226497969
C         0.69056348956207    2.68259566873314    0.73193311648461
C         2.76598917700582    3.02245298347726    1.81760456347878
C         1.12573722217460    4.74535588515778    1.77282643033954
H         4.98356535108276    3.83692073009200   -0.38904900492212
H         4.20155344164759    6.12080683466872    0.09018115841622
H         1.95205275790432    6.84919616295234   -0.69174012145403
H         0.51270419468258    5.24695783960371   -1.94713323258090
H         1.16204533915485    1.64643880582641   -2.25387282846117
H        -1.98549421098769    3.16435460336763   -3.41937744633728
H        -0.09212758414791    1.46324300465333   -4.85938170537598
H        -1.64400903035975    1.35880487795890   -0.76408532756250
H        -3.09978548786439    1.98733995389958   -1.52853997313115
H        -2.91685295890249    0.24642652017099   -1.30724080495914
H        -3.60712716479500    1.37358211183186   -3.92002717818910
H        -2.32641275144474    0.77145325567971   -4.96795679760778
H        -3.10913638713583   -0.31460548694171   -3.80792639835431
H        -0.83462065075254   -1.00589808969778   -1.25143171030776
H        -1.66440509906247   -1.58659930256228   -2.72129075387984
H         0.10635774529738   -1.64443948818309   -2.62054151683523
H         0.43624230668092    5.08128473765354   -4.64503431474625
H        -0.62490258180034    5.58324941267727   -5.96310897818400
H        -1.32084103840777    5.08145170119236   -4.41506733611030
H         0.35688213510762    2.26187375073517   -7.17712877670002
H         0.36150443938985    4.00301671112348   -7.50800172183819
H         1.47427698544767    3.32641963076531   -6.31258937906994
H        -2.62293271289620    4.75157691390314   -6.83623923148127
H        -1.89189358585953    3.59807271504953   -7.98484489403480
H        -3.43163556068971    3.20925737988282   -7.18812538571095
H         5.70978104485203    1.49238696513029   -0.01561331599058
H         6.09383783577566    0.39806541877500   -1.32242512020654
H         6.30182958905022    2.11667874059798   -1.55006934992300
H         4.04047244280267    0.08334528965957   -3.83079837887441
H         2.93809062501132    1.42804466638355   -4.07465091800918
H         4.66893145207803    1.69458370248198   -4.10680382252691
H         2.53729786339080    0.54242425100107    0.20549258191068
H         1.96140411764102   -0.16147463823669   -1.29373277008069
H         3.44488912364057   -0.74419089292300   -0.57400675617654

