23
CSD_code = KOMVUG | q = 0 | S = 0 | Stoichiometry = C7H8CdCl2N4S | MND = 5
Cd        6.40835110483384    8.48293030791926    9.29926456900641
Cl        4.44438110733516    8.34516153447861   10.65671735742200
Cl        8.37428732765554    8.73476916592125   10.53214041519999
S         5.13036560747959   10.16767107761246    7.35489555664489
N         2.52279922664863   10.04452025211921    7.48691160348583
H         1.66489907372838    9.63044581397787    7.81653942495149
H         2.58261933380505   11.04994759565117    7.48840001570610
N         3.59606822685979    8.01863550017481    7.67274358268835
H         2.67749248204419    7.61301411406124    7.87442875536210
N         4.68166729374306    7.28422120656669    7.86943580745601
N         6.91184979289948    6.10601506094502    8.75384957126985
C         3.68729700055568    9.37364099431555    7.55290514066059
C         4.62035997609117    6.04006792326579    8.13163746797826
H         3.67895088244418    5.48655285628052    8.17252355484885
C         5.84543977016104    5.34233677192687    8.47991247805214
C         5.89291792347970    3.95063486489841    8.57644398964209
H         5.01490988345498    3.36225531937215    8.35781402481985
C         7.08086316822788    3.34788205779847    8.95252543049051
H         7.14584048554448    2.27316759835673    9.03545272439843
C         8.17947369554196    4.14772286761840    9.22653507345989
H         9.12034447646281    3.71730944407455    9.52933479045234
C         8.04226424478427    5.52650760438498    9.11757098214299
H         8.86285791621926    6.19699006828357    9.34171768385908

