46
CSD_code = KOMWAK | q = 0 | S = 0 | Stoichiometry = C21H22N2Pd | MND = 7
Pd       -4.96000722849709   -1.28056286398648    8.03730653875035
N        -3.47996468890012    0.02067062217331    7.58777270805272
C        -2.20064779683388   -0.12984679068818    7.58460438768778
N        -1.61634893124214   -1.20209457389096    8.15498735922108
C        -2.21382858260494   -2.24866846342448    8.88275737166370
C        -3.60149866296577   -2.42745289442941    8.98746032998873
C        -4.04259719030767   -3.48442029760566    9.78190249520540
C        -3.17472119683489   -4.35481074975441   10.43559831246068
C        -1.80895224490793   -4.16442271916895   10.29088193946441
C        -1.33520811782912   -3.11763699422841    9.52597826675838
C        -3.71979285237260   -5.48513697986132   11.25607044599695
C        -1.24432699917010    0.87346453457755    6.99472550080237
C        -4.15524227311885    1.09189259447974    6.98151595280761
H        -0.60610597027604   -1.22731725637768    8.13877376136130
H        -5.10672427333990   -3.64876039374856    9.91147111900947
H        -1.11158275655327   -4.82886289440205   10.78009902598656
H        -0.26767924742253   -2.96509055019376    9.42664594462539
H        -2.95224289327080   -5.90166599409421   11.90388570465500
H        -4.55338080550241   -5.14821378461508   11.86906152319554
H        -4.08471427217097   -6.27930931322232   10.60412608337634
H        -0.42564521433349    1.06520443529350    7.68610563209573
H        -1.75592542458725    1.80878530116113    6.78354777216348
H        -0.82531018956122    0.48902453712221    6.06534739460460
C        -4.94880437246998    1.91745846992647    7.78377952181236
C        -5.66921183313147    2.94714733363766    7.21542981465026
C        -5.62447481308535    3.18249801413696    5.84370351797429
C        -4.83085305357311    2.36041045402402    5.05463911319641
C        -4.09190019833018    1.33120408293262    5.60943038313743
C        -6.44232124005864    4.27938640119860    5.23329866587922
C        -6.73941285151563   -1.93255878742381    6.55000385875767
C        -6.68211829031509   -2.61714992637431    7.78835853434014
C        -7.07733357828443   -1.69127046721916    8.82392570519893
C        -7.29588933298968   -0.45003945977810    8.22351924883314
C        -7.02551301209964   -0.58636373166297    6.83126038460604
H        -4.98986792471100    1.72352217376080    8.85196860216971
H        -6.28523974979097    3.57663736235326    7.84154560919357
H        -4.78951981973917    2.52438569196313    3.98710688102867
H        -3.49421603826179    0.68462155927728    4.98156167172267
H        -6.50573047877753    5.13397388904448    5.90352502838351
H        -7.45704350883230    3.92667554105718    5.04436238401141
H        -6.01619210835624    4.60275612440253    4.28640058743894
H        -6.63102132923805   -2.37456938092837    5.56965484020933
H        -6.63951444488590   -3.69404210640030    7.90357760781866
H        -7.30467762679622   -1.95943712138605    9.84786874292713
H        -7.68820632347171    0.43594041226825    8.70089228982215
H        -7.18389025868239    0.19024496007906    6.09416143695494

