93
CSD_code = KOMZER | q = 0 | S = 0 | Stoichiometry = C48H30Cl8O4P2Ru | MND = 6
Ru        0.00068809752929    0.00019961341762    0.00004614729741
P        -0.01829685801490    2.33596146583855    0.17141668931423
Cl        0.86312916699075    0.33850865475734   -4.91026848762596
Cl       -1.79070306849026    0.05131183183549   -6.53990601410023
Cl       -4.49097793744981   -0.27184624751550   -5.06639638162657
Cl       -4.59276816070069   -0.24088209206469   -1.94624144728216
O         0.38884223706316    0.27794007705865   -1.97505447428391
O        -1.88280074315064    0.08396084736957   -0.73714236274857
C         1.66820547736217    2.92872062480465    0.45166891352272
C         2.65658943816692    2.39612160368147   -0.37867221563767
C         3.98075206618201    2.73511879162675   -0.17744861089393
C         4.32991453217112    3.58109152745200    0.86431475031694
C         3.35433853985427    4.08156889669061    1.70998436718924
C         2.02350503150301    3.75609227143615    1.51084836985758
C        -1.08493798030088    3.21518771963850    1.34272217200312
C        -1.84756584366695    2.50664930563168    2.26326272541822
C        -2.66484911930179    3.18868019689959    3.14889738063291
C        -2.72597353881613    4.57145283569671    3.11169451390572
C        -1.97814099072444    5.27901607967345    2.18163088720844
C        -1.16013124645983    4.60617990464302    1.29467073327091
C        -0.57348514512265    3.01403001811181   -1.42432719722579
C         0.29029621856443    3.41883082644419   -2.43532708439603
C        -0.21443746366133    3.73652162067139   -3.68468052471218
C        -1.57374022928542    3.65067876003407   -3.93389711932689
C        -2.44103322000494    3.27190826915950   -2.92128720665908
C        -1.94512030297230    2.95309880465943   -1.67159190388642
C        -0.65539805478457    0.10522195184964   -2.70690554841917
C        -1.91477845021441   -0.01453045696373   -2.01829835429958
C        -3.09566619030618   -0.12158127147930   -2.77410093072736
C        -3.04535368678799   -0.12251091685137   -4.15793688223346
C        -1.82031537059605    0.01625749790806   -4.82686553598497
C        -0.64175046114477    0.14119820998697   -4.11083976117423
H         2.37642148167940    1.69681752083521   -1.15740316944274
H         4.74540332671412    2.32553975960495   -0.82052204288122
H         5.36665831815688    3.83341401598709    1.02931461869672
H         3.63002781155920    4.72095999393675    2.53548520177422
H         1.26566784942850    4.13654155704316    2.18134432390760
H        -1.80382370351772    1.42594786671446    2.27278257152235
H        -3.25447189838255    2.63871902965819    3.86693757336754
H        -3.36214241875283    5.10256709125338    3.80409478623797
H        -2.03571240623852    6.35710302296374    2.14823449973541
H        -0.57996967369276    5.14789225749424    0.55920202568849
H         1.35237381349793    3.48460979488105   -2.24959573878751
H         0.46048789454970    4.04244486328773   -4.47007828178258
H        -1.95895186392572    3.88230689967428   -4.91538133045353
H        -3.50271046565432    3.21327922863241   -3.10914528385168
H        -2.61542100415605    2.64324561284207   -0.87923665654739
P         0.01806074054975   -2.33605157314340   -0.17142114627260
O        -0.38871922990224   -0.27772215312574    1.97483181594763
O         1.88385781770726   -0.08421961619068    0.73712309582512
C        -1.66839450703836   -2.92883744651655   -0.45161545633683
C         1.08483200304758   -3.21520569215829   -1.34268971518949
C         0.57333523481666   -3.01379263330136    1.42444202887130
C         0.65565046249155   -0.10525572745504    2.70663999064470
C         1.91525973325111    0.01441384579324    2.01821190404930
C        -2.65671427542921   -2.39597721085086    0.37860895000264
C        -2.02372425816934   -3.75614648452054   -1.51079407360137
C         1.84748878553197   -2.50673689305890   -2.26327865558575
C         1.16004170333869   -4.60619842147851   -1.29454631954936
C        -0.29044349175266   -3.41851479682800    2.43546760484001
C         1.94504718379961   -2.95319908977425    1.67160287087977
C         0.64196259910109   -0.14122376384140    4.11059295610608
C         3.09600160234785    0.12156099923519    2.77410878833816
C        -3.98088529289196   -2.73493487548438    0.17744440436259
H        -2.37644427577049   -1.69676700043889    1.15739258089949
C        -3.35456503226903   -4.08152409682396   -1.70992498226404
H        -1.26589477175359   -4.13663830506860   -2.18127122874519
C         2.66475128718627   -3.18883226288056   -3.14889157356692
H         1.80385457393984   -1.42604219392206   -2.27280027024346
C         1.97797035731953   -5.27909772822613   -2.18153659029267
H         0.57980189156461   -5.14787528419589   -0.55911517801826
C         0.21434225170045   -3.73649374496734    3.68472623494573
H        -1.35241865719095   -3.48468530915027    2.24959563128616
C         2.44100551283220   -3.27221546363637    2.92123539425252
H         2.61535376762849   -2.64332667538230    0.87927527946254
Cl       -0.86294309765925   -0.33832907668965    4.91002392843580
C         1.82049067955908   -0.01628167380660    4.82668885654480
Cl        4.59316369449994    0.24085669376292    1.94636749686009
C         3.04555963757261    0.12255170704439    4.15788566714749
C        -4.33007864248065   -3.58106067664537   -0.86420045387431
H        -4.74549469892691   -2.32529723253357    0.82052137564650
H        -3.63029330329617   -4.72086047802217   -2.53544182704810
C         2.72581028952596   -4.57160168110152   -3.11164893209166
H         3.25441420427761   -2.63892010517340   -3.86693864259487
H         2.03546271949536   -6.35718803306298   -2.14813759530331
C         1.57371893046349   -3.65097010807546    3.93384771208165
H        -0.46059739476664   -4.04239853241591    4.47011989242342
H         3.50258273485679   -3.21316537197762    3.10924317807386
Cl        1.79078504475744   -0.05115979744589    6.53972765164796
Cl        4.49114397476537    0.27190793652883    5.06639132619327
H        -5.36685954306775   -3.83314891010017   -1.02931437075852
H         3.36198576324807   -5.10276370923241   -3.80401036248769
H         1.95886148652187   -3.88217709067272    4.91545805412738

