32
CSD_code = KONBIA | q = 0 | S = 0 | Stoichiometry = C13H11N4O3V | MND = 5
V         8.65176725826024    5.54185444325243    9.87338632743717
O         7.74367814140017    4.59241395504183    9.08937052762651
N         4.69430064882438    9.43322731497773   12.19282722849599
C         5.56620562577900    8.58213903639168   11.69151987762876
H         5.61753645967855    8.51501040320654   10.61177064080139
N         8.13173811737882    6.12815074867735   12.63990079725179
C         4.60589955982221    9.53978423595617   13.50853371270012
H         3.87486876269136   10.25161871141675   13.86911099208748
O         9.54342209679306    6.45591680141116    9.03071830954057
N         8.90077782175194    5.36435602220085   11.87628944192263
O         7.40438120983381    6.76841281002703   10.59412129727052
C         5.38455660283922    8.80224354023001   14.39119881234928
H         5.27375121922645    8.92676010030685   15.45725192684514
C         6.30125089587802    7.90757817295164   13.86942054239421
H         6.93392048316197    7.30627416874256   14.50407300799085
N        10.07439482335467    4.17431474078325   10.06628335769661
C         6.40044022837800    7.78831251693740   12.48393637359163
C         7.34756859545194    6.85940821998824   11.84524272594361
C         9.77325678775401    4.53826420893446   12.35350375962580
C        10.03728868157935    4.32881690417504   13.81086612405726
H         9.84328401161530    3.29339944202317   14.08925584062847
H        11.07496546743615    4.56097071867081   14.04853257000529
H         9.38358859421839    4.98229501542984   14.38382457685553
C        11.47489419064225    2.87175815846131   11.50010485101092
H        11.78157426310857    2.60915682250767   12.50015217053886
C        12.05431287715879    2.27706602698513   10.39512124081836
H        12.82879615839831    1.53504922791314   10.51910594926327
C        11.62577865765331    2.64810261744821    9.12722097255707
H        12.05637991155125    2.20391935821262    8.24455390162316
C        10.62771047769846    3.60623691788250    9.00807699062722
H        10.24995141085947    3.93885940574261    8.04772239042649
C        10.47525995982202    3.82832923311413   11.30130276238823

