39
CSD_code = KONBEW | q = 0 | S = 0 | Stoichiometry = C20H10Cl2N6Pt | MND = 4
Pt       -0.40497463123872    2.25174191350372    4.10142552087484
Cl       -0.17352456429021    4.47620653786599    4.22225622034171
Cl       -2.03627718141504    2.38387134303931    2.57229260664222
N         1.07093369161691    2.06257793853840    5.45089447415281
N         3.30653201350804    1.96806785039892    2.91334140431627
N         1.77693269637482    0.09073028559321    1.55935070682753
N        -0.56158258878892    0.24779253184200    4.02659617927889
N         6.51694562764773    3.54019955213388   -1.68863105431975
N         4.42334967573955    0.77792177515736   -3.58569529633827
C         0.98157767118866    2.42158524124754    6.72905864986244
H         0.02069560317896    2.79988571961035    7.05296758426551
C         2.05924851362087    2.33908682422714    7.59133127839862
H         1.94954566653074    2.64078721813656    8.62029106448760
C         3.27674250945362    1.88429348252080    7.10390303889922
H         4.14010988842718    1.82165391280071    7.74776329027569
C         3.37025255120959    1.53263096175491    5.76737069495100
H         4.30005607366149    1.20337547667454    5.33267024277329
C         2.23829791491908    1.62618970046399    4.96838416253142
C         2.31951367932516    1.34919404697335    3.51511771808925
C         3.50032238620893    1.76231026868179    1.59564922598183
C         4.48863189747657    2.48737622530427    0.91033598538419
H         5.05169591821529    3.23934482952582    1.44080474362407
C         4.71078746093546    2.23465200626000   -0.42591358341909
C         3.95281067190839    1.24279252006130   -1.11099275849509
C         2.97801325854744    0.52646084095456   -0.45117079669404
H         2.38666000846495   -0.21788850904412   -0.96129218673354
C         2.73240142082565    0.78277502650161    0.90743880914214
C         1.51390494897814    0.39191248375329    2.80788260984970
C         0.42041787443491   -0.40852650681922    3.39978679431556
C         0.37267254378113   -1.78369281033902    3.20632112273039
H         1.17200052872958   -2.26896184574854    2.67034695538633
C        -0.71352595349834   -2.49164691390357    3.69213118639918
H        -0.77669037220351   -3.55979177545150    3.55439215338591
C        -1.72749967865360   -1.79769575168113    4.33844300711547
H        -2.59955708081831   -2.30804418228796    4.71379052352655
C        -1.61640327573951   -0.42685900853095    4.47814480073590
H        -2.39487591481159    0.16198293470694    4.94603706753861
C         5.70558405120438    2.95492285090019   -1.13159365266678
C         4.21427449529332    0.99438500466962   -2.48073049340830

