48
CSD_code = KONMUV | q = 0 | S = 0 | Stoichiometry = C17H27MoNO2 | MND = 10
Mo        3.30060947374046    9.29205415289449    3.27196929807201
O         3.44700488716505    6.77225334488689    4.74312938016827
O         2.80839785099096   10.50330808642097    4.87499769360204
N         3.42248315772246    7.82779913346025    4.19530715573128
C         1.12724208086833    9.58610371011050    2.67743752283947
C         1.76919022960055   10.80976761798192    2.28884554125830
C         2.72008015952411   10.51317080802290    1.29822081055934
C         2.63979477348903    9.10856879202364    1.01149025009224
C         1.63693715170282    8.54445922146551    1.84418562569048
C        -0.07782919557516    9.51195283590551    3.56824105150756
C         1.37796586035607   12.15038599714973    2.82414360099896
C         3.49325737313654   11.50657422662450    0.47877324690052
C         3.25514394414602    8.42066507458049   -0.17083754651693
C         1.08418847909679    7.15420369320718    1.73468334579141
C         3.68902418941493   10.81361198832631    5.88167423834003
C         3.10273198376230   11.97474541333870    6.70928441517170
C         3.91966802265068    9.61457461475295    6.82045084904829
C         5.06566032155906   11.26158199562924    5.25275161726378
C         5.15564651440766   10.66540736868113    3.88314727373332
C         5.56921484335019    9.36773234660053    3.66187323616163
C         5.29453153664564    8.81009871944010    2.37212814709661
H        -0.26265235583242    8.48725137590166    3.88498544263940
H        -0.96317467808923    9.87876212734913    3.04319410403948
H         0.07948578100921   10.12335327249349    4.45574069967649
H         1.49578779698755   12.15525267308502    3.90925404357955
H         0.33147016806788   12.35422446487797    2.59175391114807
H         1.98778627690952   12.94576947990058    2.40032155112319
H         2.95013805809284   11.72722904715489   -0.44311127508357
H         4.47486122000653   11.12510768349836    0.19875712856582
H         3.63337347511236   12.44229563090649    1.01748458063944
H         2.53565117510613    8.39805628869733   -0.99267425136492
H         3.52716602950523    7.39379341403440    0.06674234739736
H         4.14504451724211    8.93930259270865   -0.51940006252109
H         1.83833770264880    6.46225628101925    1.36512447909925
H         0.23841525989892    7.14286313814755    1.04336800227351
H         0.74131288618284    6.79544070846804    2.70368062401778
H         2.89726828643383   12.82496107474014    6.06186132524841
H         3.79732497716566   12.27839077537638    7.48797039389285
H         2.16953546121061   11.65773403853233    7.16780910762566
H         2.95770420265188    9.26509107018854    7.18803956187247
H         4.54017576078293    9.90190585490416    7.66599633543987
H         4.39556855840349    8.79323166989418    6.28826234803943
H         5.88158302504760   10.91761442674833    5.89163978371609
H         5.09875785174772   12.35062389273223    5.19612284850157
H         5.12646469314859   11.35796495950793    3.04133740839270
H         5.98548264946769    8.76165380901837    4.46542943449529
H         5.65902607276134    7.79785352126342    2.21477628033327
H         5.55266151084137    9.45599758737838    1.53163709388719

