45
CSD_code = KONNAC | q = 0 | S = 0 | Stoichiometry = C16H25MoNO2 | MND = 10
Mo        3.36767518869355   -5.02657645904470   -2.02239207265579
O         4.09831584033163   -7.82696323339120   -2.39666159126559
O         1.39072422513862   -5.13170259566924   -1.63252201598649
N         3.74694185246037   -6.69212085776650   -2.28213650981650
C         3.75292923135878   -4.58768160439427    0.21552387648880
C         5.01863392622544   -4.64202512429830   -0.43090574920120
C         5.09361689103865   -3.55222311342571   -1.31860484522710
C         3.89018397231014   -2.80233462042890   -1.19907154237158
C         3.09127742259625   -3.41643233022129   -0.23828327821975
C         0.45392774599595   -5.93142243556814   -2.22303633825758
C         0.45041683840037   -5.57626676996383   -3.79595748533211
C         1.89729293988038   -5.56423128844227   -4.16557832269276
C         2.69818621205834   -4.44991248627427   -4.14173403397901
C         4.14361379688685   -4.51643310018482   -4.10284099588384
C         4.84428373285458   -5.62409525004756   -4.88202812569832
C         4.80913291433045   -3.18899622893657   -4.44877306621386
C         0.75625187226379   -7.42638197526908   -2.01115926802086
C        -0.91328176098757   -5.64042102749315   -1.57106610978895
C        -0.20844262476145   -4.20486681979398   -3.99609396183397
C        -0.30728461826572   -6.61663459633852   -4.62479876228516
H         2.30498463595574   -6.50804718555119   -4.51451535548700
H         2.24183141707485   -3.46088701786381   -4.10774936754177
H         5.90698699742994   -5.62315047804590   -4.64488436910971
H         4.45986030828616   -6.61520120361312   -4.65865058073822
H         4.74031696808819   -5.44948730423461   -5.95579608407695
H         5.87010370886146   -3.20293802962433   -4.20457208816476
H         4.72983905764701   -3.01232229111717   -5.52464582598951
H         4.34414517288655   -2.34515866917754   -3.94179277409647
H         1.02465444871894   -7.56404201261062   -0.96466259929594
H        -0.11940113401970   -8.03107113663967   -2.22830086372150
H         1.58708433024646   -7.77046613055660   -2.61861836091548
H        -0.90933315141857   -6.04999040362136   -0.56387321631181
H        -1.07932503341952   -4.56974031427850   -1.49758102565261
H        -1.72452367627262   -6.09723315819821   -2.12978041375521
H         0.01173390891148   -3.82626206474198   -4.99316191478965
H        -1.28712281193397   -4.28847333257522   -3.89751935280760
H         0.15008891090445   -3.49216219460115   -3.25566405266381
H        -0.36344800843106   -6.27966043056493   -5.65861994516099
H         0.19175539047340   -7.58067590610950   -4.60765123029813
H        -1.32158666142222   -6.74413133932759   -4.25593812055323
H         3.46091593157688   -5.17948368193060    1.07501610010002
H         5.83217438273168   -5.30883692604389   -0.16988453315865
H         5.98502949922340   -3.23323502000270   -1.83998671067732
H         3.70549818773894   -1.83594883134798   -1.64812561796124
H         2.14554162134924   -3.05127302066695    0.13927850106719

