81
CSD_code = KONXUI | q = 0 | S = 0 | Stoichiometry = C34H36N6O4Zn | MND = 6
Zn        6.37083147031357    3.79424030000055    8.28508878896660
O         6.31770399183617    4.83663795460649   10.01669510963623
O         7.33243695121797    5.34831095958742    7.46528423828543
N         4.47389091337234    4.58330877749708    7.66469658948350
C         1.66034361129828    3.37986945447245   12.67339365082387
C         0.95008294228270    2.77854957428193   14.89879988617547
H         1.19469802638284    2.52204900055793   15.91945786878792
C         3.35699460840043    4.47558255978239    8.39541362283127
C         7.01909958290176    5.84003740024127   10.31418362136037
C         2.72773607773891    3.65672581135968   11.74016038152990
H         3.75465687716687    3.58892929771329   12.11628018051755
C         7.82257218623092    6.55857308285918    9.43274902711207
H         8.39133391364726    7.38750734877529    9.82464232930569
C         7.94154013430011    6.26298554741172    8.07303781128385
C         1.98055853909401    4.95646289087442    6.49989150908523
H         1.01285488960030    5.09069839789311    6.03889826467652
C         1.96045283890815    3.04643316243407   13.99570280285690
H         2.99347272395420    2.99901070049820   14.31060486118870
C         4.35953470700752    4.90599440972094    6.38085196289544
H         5.29354561833854    5.00177072019833    5.84942372112425
C         2.07945217969467    4.64516970670193    7.83389909383294
H         1.21737530525611    4.52811567848274    8.46915851294693
N         2.49183657871067    3.96441258656900   10.52281523910728
C         0.31991428282889    3.43629616893066   12.28147553567015
H         0.09376335755975    3.69369313238980   11.25900228823089
C        -0.68509442726978    3.16773348362577   13.18737953189270
H        -1.71853001713561    3.21391600572946   12.87545484934066
C        -0.37493851055690    2.83826398216496   14.49877486980196
H        -1.16367816679612    2.62865855097843   15.20619133507101
N         3.51878614895527    4.20775535178101    9.71366969800617
H         4.48270365787832    4.13072505866767   10.04976530624426
C         3.14756687967196    5.10533715938522    5.75288994837676
H         3.10974954957909    5.36433380092127    4.70724753231069
C         6.98937644507943    6.30487014043261   11.75866239591045
H         6.30241868255890    5.68933752415309   12.33349956641119
H         6.67299197187279    7.34398585875271   11.81149943679290
H         7.98508117914910    6.22900686112834   12.19048418588838
C         8.89901274889373    7.11754354516840    7.26296829390420
H         9.92170739416445    6.90021215054544    7.56619409305036
H         8.70824755368316    8.17373200311370    7.43383034794187
H         8.79209146384601    6.89205241660717    6.20526991053493
O         6.42385822464129    2.75176826983798    6.55350672484455
O         5.40922220694073    2.24025119226352    9.10497974578932
N         8.26783243455784    3.00521861849703    8.90528716084260
C        11.08062943005489    4.20888502688701    3.89622336089278
C        11.79046084888421    4.81044485997864    1.67074397570295
H        11.54564809613221    5.06705579496292    0.65016112453688
C         9.38464331083515    3.11291778219432    8.17442864820826
C         5.72242467057483    1.74837451525896    6.25609705584736
C        10.01341182713307    3.93193806644421    4.82962899960206
H         8.98642441991155    3.99974602493316    4.45369122186205
C         4.91886716355165    1.02998397942049    7.13757647436642
H         4.35002232967561    0.20108373339741    6.74573540729268
C         4.79999921142912    1.32561507875038    8.49728557487172
C        10.76130032827357    2.63193624437209   10.06976611550322
H        11.72905728246254    2.49763999537396   10.53062985660721
C        10.78026583351604    4.54245832311535    2.57400604861584
H         9.74718599356442    4.58990953732971    2.25930487323870
C         8.38233982433113    2.68249886251062   10.18910994609650
H         7.44839268082463    2.58676104737219   10.72065876589581
C        10.66224876257101    2.94326072844213    8.73577690577404
H        11.52425127521004    3.06028383322556    8.10041015861996
N        10.24951827008388    3.62417860125932    6.04691675099944
C        12.42113390412421    4.15242393400319    4.28787906611950
H        12.64748085671763    3.89491909386106    5.31028162533821
C        13.42596717171321    4.42109005923346    3.38181101449217
H        14.45946260453574    4.37487715715352    3.69353151418216
C        13.11555883122766    4.75069765057541    2.07050979846993
H        13.90416199251488    4.96038501964753    1.36296544737087
N         9.22269040135314    3.38078658845934    6.85620255012436
H         8.25872676359110    3.45782867960718    6.52024517457716
C         9.59438073749125    2.48309434888207   10.81691316785674
H         9.63232096732287    2.22408015568647   11.86254675371277
C         5.75213145160308    1.28341834867238    4.81166162086201
H         6.43917679028971    1.89881269362273    4.23678417845177
H         6.06841125772800    0.24426752903201    4.75895526769444
H         4.75645159067839    1.35933178591545    4.37979598413785
C         3.84254226373040    0.47113494126937    9.30745447177122
H         2.81982744310759    0.68870658515437    9.00447156170942
H         4.03306638851242   -0.58506715158433    9.13641865755995
H         3.94972929697887    0.69647394799711   10.36515905035880

