37
CSD_code = KONZOE | q = 0 | S = 0 | Stoichiometry = C15H7F6N5O3Os | MND = 6
Os        7.10830754498807   10.44822976392253    8.78867251813609
O         9.83029757197581   11.09380194596977    7.59945181824329
O         7.19729796902918   12.97589900734797   10.43027588122075
O         7.02415197212797    8.47581709711782    7.51696447493113
H         7.04404626762818    8.64688719549955    6.56676753175878
H         7.74953627124456    7.87206119255953    7.72219180924210
N         8.74793169539802    8.72935167606762   10.81574912195861
N         7.62876977216715    9.20252711653010   10.33728561819106
N         5.30490193969701    9.86179044492795    9.46624243236396
N         5.85471866656201   11.20453015138743    7.34764325182262
N         6.01198249677342   11.81673459697109    6.20489083290154
C         8.81161859486503   10.86645518455428    8.05522968006163
C         7.17302174359114   12.02045542071490    9.80421247599016
C         9.48092679050527    7.15568702834392   12.56560381644106
C         8.43377738205073    7.90067558138142   11.81948854569996
C         7.04965825949012    7.83300548586325   11.99522596759373
H         6.51124254128595    7.25432676079202   12.71592673845456
C         6.55835569738535    8.69157024105543   11.01566265967435
C         5.24537874151699    9.05424469268715   10.53385808026426
C         4.01306527331414    8.61627215871935   11.01488424894633
H         3.96628726118931    7.97363528919147   11.87805092019743
C         2.86449378482328    9.02354824214398   10.35280853212139
H         1.89814076120873    8.70397802615570   10.71218388488784
C         2.94781317301401    9.81818688112098    9.21927489280769
H         2.06676762204852   10.11663934671472    8.67617928538114
C         4.20860068409043   10.22425356750750    8.78642493052645
C         4.53035564351536   10.98012960861681    7.59784403690838
C         3.80487382312642   11.49445487108533    6.52674352814492
H         2.74670033780782   11.50156381961307    6.37061586846360
C         4.79337032397873   12.00782875346368    5.68384815430958
C         4.61111758846606   12.65649406655981    4.35926651401485
F        10.46632041345345    7.93495610834942   13.02956577905354
F         8.96756902606592    6.51104955699161   13.62867061899789
F        10.07391341185165    6.20795244209616   11.80912236164526
F         3.30888982083683   12.79277285334431    4.05076199371376
F         5.15819624615920   11.94148773069745    3.35572587864069
F         5.15020288676396   13.88154609393077    4.28428531629180

