91
CSD_code = KOPBAU | q = 0 | S = 0 | Stoichiometry = C44H32F6N6OsP2 | MND = 6
Os        4.36541471422174    5.30845324672101    4.18376589723149
P         2.63959334089574    4.53529093311687    5.47648518552258
P         6.35864650612186    5.51612820482061    3.07303622442765
N         6.25832768944311    6.53914963121459    6.36064591195755
N         5.28400713402928    6.60659971340123    5.48793129191237
N         3.55873042914931    7.01517704914439    3.63448769150872
N         3.13204029136384    4.67993302669364    2.66340581718262
N         2.73653706588351    3.52830812781338    2.18114386341610
N         5.21188488555148    3.51401991182082    4.76105915690853
C         7.62128417846605    8.06470934740012    7.71660996316167
C         6.53288160864082    7.79660789942800    6.75126640407046
C         5.70638365842212    8.70847059670180    6.10192897616095
H         5.70049550627210    9.77324798540334    6.20476632482415
C         4.91270361545623    7.90214315336250    5.28512422380486
C         3.91764518905914    8.14633928613859    4.26924745332582
C         3.36067426406692    9.36779698697657    3.90154462485776
H         3.65514720120925   10.26913203360584    4.41357095795327
C         2.42966193428470    9.39206149599283    2.87347691703638
H         1.98445357703944   10.32880055738536    2.57380315830161
C         2.06798941417359    8.21820805510556    2.22886850419379
H         1.34580489735857    8.21656144431207    1.42903852681521
C         2.65817415401223    7.02460927552980    2.63437292769778
C         2.40758927381485    5.69938911565281    2.12173681386894
C         1.49582592260032    5.14626295794753    1.22172876309255
H         0.76455937261476    5.64009969103630    0.61696406686879
C         1.74862351619083    3.78038495542456    1.30384734465223
C         1.06027670869885    2.67226323848115    0.60629577205134
C         2.96311300641260    2.72659467795738    5.23773636683618
H         2.45397360699232    2.09605605886514    5.96987946901497
H         2.60041846588325    2.50110514626050    4.22490852600490
C         4.44428133680073    2.50849670563269    5.23173396645921
C         4.98689782588676    1.30078656192327    5.63883113328931
H         4.33815433354443    0.52691270283097    6.01761446824312
C         6.35286561091722    1.09326933469433    5.53780694335579
H         6.79427081815078    0.15657318500565    5.83826457466907
C         7.13627671066207    2.12173300849375    5.04021667296892
H         8.20447184825018    2.00565821886692    4.94693207786944
C         6.54486124518779    3.32002330885920    4.67533361316921
C         7.37520213581231    4.48199938677158    4.22648162858798
H         8.33027437349985    4.16905667573384    3.79904831462936
H         7.54343255232812    5.11695092605894    5.10789734371409
C         0.94048349468845    4.80600777651457    4.89754872543473
C         0.13425792040172    3.84643394123198    4.29755021635195
H         0.44304170603899    2.81336215643215    4.25060530466676
C        -1.07890709224460    4.21734615764633    3.74229313738623
H        -1.69655030189634    3.46908318256150    3.26852180733502
C        -1.49214444536467    5.53798969724469    3.77771379086967
H        -2.43333626147562    5.82086528508708    3.33049401244558
C        -0.69655136541824    6.49841327043980    4.38394898186524
H        -1.01628352777049    7.52977168906283    4.41297987849369
C         0.51493279037123    6.13445693779145    4.93642332482252
H         1.15339981936645    6.87587672093116    5.40385905444422
C         2.53616865268475    4.67334139056331    7.28623574348762
C         1.33319196910073    4.59654619451902    7.97915824073930
H         0.40521301950201    4.47479008991547    7.43708918151039
C         1.33199387672713    4.68285800088329    9.35988368946684
H         0.39814715405781    4.62493483994526    9.89996721613131
C         2.52298652822864    4.84689762519603   10.04931998929028
H         2.51421000177570    4.91977529713483   11.12676652192705
C         3.72289760591582    4.92347377680285    9.35969775781667
H         4.65039910656992    5.06079515557993    9.89492757905933
C         3.73198767700652    4.83695684820494    7.97992846545207
H         4.66205672078042    4.91086606935935    7.43145321159040
C         6.74360996080167    4.78198948818911    1.45506582931414
C         5.99727389967861    3.67225896307664    1.06825401617546
H         5.20529680429555    3.31053624121432    1.71115876508853
C         6.25757033244797    3.05279472314695   -0.13993771007929
H         5.67086971607574    2.19854099199779   -0.44258377549019
C         7.26110137148568    3.53825586396812   -0.96373038820921
H         7.46154588944395    3.05845359647003   -1.91025177481858
C         8.00519223605582    4.64244433715779   -0.57944806996253
H         8.78552731276783    5.01966065295031   -1.22434181238187
C         7.74987512395719    5.26797895023831    0.62783375250378
H         8.32445857223003    6.13358663175096    0.92842822808863
C         7.16233885777986    7.14357389027959    3.04300963242760
C         8.24159497617490    7.52031046289359    3.83298187744881
H         8.76016983306915    6.79789893554504    4.44451031540302
C         8.65537146069534    8.84177955943209    3.84687121250938
H         9.48779075971931    9.13058751611175    4.47098273612155
C         7.99928685559010    9.79038956443572    3.08149919614486
H         8.31980532797431   10.82111249175313    3.10870827305586
C         6.92833612231312    9.41852100946241    2.28290302347232
H         6.41452472910258   10.15653857496712    1.68446935597811
C         6.50968275118545    8.10326081512011    2.26810587396183
H         5.66635783919590    7.79922511776272    1.65799063226267
F         8.80847761548894    7.55445851805109    7.31795594642040
F         7.40058948654172    7.54524264536986    8.94171837500970
F         7.82987409350285    9.38013027429283    7.90156355096485
F         0.54266859726355    1.76068853778026    1.46083923483041
F         1.86099286105835    1.97238397316979   -0.22328270824071
F         0.02937164585281    3.10019175177880   -0.14347728030281

