102
CSD_code = KOPFAW | q = 1 | S = 0 | Stoichiometry = C43H50ClN3OP3W(1+) | MND = 6
W        13.33288076781261    6.00184390364969    4.52406848403003
P        14.09819499841042    3.90108983358822    5.56949313987285
P        15.33992276177944    7.29244984739503    5.14157791141283
P        12.13486982730108    7.99050695629042    3.64360917762191
Cl       12.60677917970655    6.65995961943310    6.61896571613537
N        14.07445512550673    5.51337907088847    2.97988472145773
N        14.63754527439589    5.14766638036905    1.83903710356698
O        12.84702738663493    5.68437198707736    0.59142037951705
C        15.78690085996724    3.28343404166162    5.20093164452688
C        14.06650429829994    3.72085544861891    7.38484312627676
C        15.05813434325525    8.98932112271515    5.77566940777074
C        16.50083617258488    7.64672482865243    3.77277240075078
C        11.10234568168392    8.89625708510177    4.84884252642554
C        10.89125352174490    7.65702866062123    2.33789812122400
C        13.96551039839747    5.20869351270782    0.64287906483832
C        14.69406453836621    4.55281775465077   -0.51342291547242
C        13.10744124404707    2.49304394351312    4.96606970245097
C        13.16176783337509    2.22298485305175    3.59975074721834
C        12.41416679527398    1.19842200829905    3.05337949180319
C        11.58368334620284    0.44260967175295    3.86573370994414
C        11.50516242127492    0.71863491148501    5.21960541952015
C        12.25993287028736    1.74060891893466    5.77049325119981
C        16.43108936782744    6.65575245386102    6.46249361071059
C        17.69059946065570    6.11874284151931    6.21254075271162
C        18.46354171294966    5.63580895838780    7.25524139011354
C        17.98789266576007    5.67696213989320    8.55495660596054
C        16.73022019122160    6.19933548909299    8.81128569121718
C        15.95466044980791    6.68103756871837    7.77221127590957
C        13.09759476088127    9.29233773270522    2.80603866186543
C        13.14388191709977   10.62168997355680    3.20941143581073
C        13.91636460613332   11.53256628851740    2.50674094581455
C        14.64447562323371   11.12663813137805    1.40188316578379
C        14.60412845769661    9.80123282486934    0.99601306985527
C        13.84067513893657    8.88855443163234    1.69907027608732
N        11.47681553212623    4.95836287585613    4.27592226544918
C        11.16369622727034    4.48435260739441    3.05664206080934
C        10.07682019467123    3.67088003909502    2.80959444821675
C         9.23721301004143    3.31241691937768    3.85397695736454
C         9.53732399941525    3.81225568501952    5.11220763426223
C        10.64960101477950    4.61245264633969    5.27657157603433
C        14.16035900440347    3.13606288944183   -0.53101337147350
C        12.80700243346570    2.91070719135639   -0.75830052492095
C        12.30636068111088    1.62193989199149   -0.76178709627409
C        13.15031402773124    0.54648478742233   -0.53151535618568
C        14.49611710947176    0.76654794188244   -0.29311419415613
C        14.99854331546515    2.05689631301256   -0.28793470424950
C        14.46921031104938    5.32080052848377   -1.79985048973014
C        14.20149324430655    4.68088057126364   -3.00075454500834
C        14.03021237869771    5.41733934584313   -4.16036317482099
C        14.12415259104306    6.79729029454628   -4.13213275065738
C        14.40152628466435    7.44080562104485   -2.93825936287900
C        14.57875858703686    6.70549292867659   -1.78107132439546
H        15.59325737734808    4.79084519039373    1.86116941328916
H        16.52009224403374    3.95685814294100    5.64350827900527
H        15.93981023362523    3.24453065003404    4.12447650782557
H        15.90996940093385    2.28306967184670    5.61594238615278
H        13.08730930203582    3.99531463761701    7.77521780024197
H        14.31276971024598    2.69736891764372    7.66729093944444
H        14.80631631678219    4.40327998352225    7.80479975567024
H        15.99753506621397    9.41308060720182    6.13151931325069
H        14.65850013183571    9.60495085177553    4.96994113445309
H        14.34193397041222    8.96301172122523    6.59529080504421
H        16.85117349881141    6.71788409028426    3.32696297039687
H        15.95923604247603    8.21478605403177    3.01636584192367
H        17.34858740188135    8.22994055199774    4.13155452638755
H        10.39005642452450    8.19084236952117    5.28057245472801
H        11.71353545759046    9.29746440082556    5.65606978851771
H        10.55769793646506    9.69916240460744    4.35205806438370
H        11.36092022747667    7.13150747958580    1.50808087150992
H        10.08878824744821    7.04082902304271    2.74405432189688
H        10.47874000790026    8.60157462367931    1.98187128541302
H        15.77165739584741    4.53059929752045   -0.30630679248347
H        13.79713501908027    2.82484588185812    2.96322325948828
H        12.47574893492967    0.99445399351366    1.99517482368829
H        10.99702899067851   -0.35809231160915    3.44272578070799
H        10.85421641870284    0.13539170397639    5.85314577852222
H        12.18415399489945    1.94414417306469    6.82791793984088
H        18.07885763479136    6.08333373080796    5.20544325952230
H        19.44293611759707    5.22959321083190    7.05132486020147
H        18.59568925661403    5.30513961284868    9.36515041828107
H        16.35456208455365    6.23323375150589    9.82297370982880
H        14.97041196128177    7.07934857215131    7.97497370431100
H        12.57829705239152   10.95713665566625    4.06598546725793
H        13.94487394230860   12.56445568334191    2.82269538968381
H        15.24039249122656   11.84139258662106    0.85571461007546
H        15.16931851076710    9.48762476293455    0.13062379143472
H        13.79272402243362    7.85131462064692    1.39706342520395
H        11.80603661932621    4.79462669454627    2.24406617447986
H         9.89455922043447    3.32745764010717    1.80436126432648
H         8.38126837108884    2.67722592733020    3.69454067856445
H         8.91941781724439    3.58126488093946    5.96514456642046
H        10.88701668209954    4.99939990149761    6.26117847629861
H        12.15500986878071    3.75259553676497   -0.93680330773013
H        11.25618737691727    1.45442837201990   -0.94906137361235
H        12.76111585287068   -0.46053206103778   -0.54105933998946
H        15.15802558047378   -0.06723743898632   -0.11427234827087
H        16.05337629083387    2.21927039058334   -0.11320043702359
H        14.12915985956530    3.60427392427655   -3.03486055048714
H        13.82169293285702    4.90828243839411   -5.08899076862179
H        13.98574087552760    7.36923370718660   -5.03672741598705
H        14.48258474800350    8.51701031354257   -2.90877828210446
H        14.80255113265625    7.21115020287175   -0.85212048290048

