111
CSD_code = KOPGOO | q = -1 | S = 0 | Stoichiometry = C51H53BFN4Ni(1-) | MND = 4
Ni        8.15386025007274    4.19929344167747    9.71291238284346
F         8.14747297401047    3.24892224166390   14.03462563058207
N         7.43772160088738    5.48146122887201    8.56777530825312
N         8.91703774238156    2.71353699991282   10.65171236275842
N         8.27036655550174    3.21879516630921    8.13295256114080
N         7.89318691534235    5.40899478609804   11.18594680641401
C         9.19515655922865    1.10045302816522    8.79054484229782
C         8.68581053547878    1.96705410205074    7.80702377816602
C         7.33706410094211    6.68439111235229   11.12475499724533
C         9.63914002406678   -0.25030271691952    8.38092205546470
C         9.29497223253898    1.48549947697698   10.11487398009317
C        10.43270923771831    4.38788910423765   13.61823944463796
C         6.89036383711371    7.33795356785541    9.99067274521817
C        11.46796394682833    4.73204186235206   12.73328370064499
C         6.94374771697592    6.73743002361411    8.72045293962098
C         6.33919183604907    8.70683985267572   10.09938527620165
C         4.97453744145443    8.89407900823213   10.31828278618955
C         7.34819971234729    5.14801331425391    7.26183272421758
C         8.50170604984544    1.77803213896190    6.41645343937074
H         8.74097591039079    0.88190918177549    5.87262054536680
C         7.96345997409375    2.94728393823537    5.91641684145243
H         7.69399847326203    3.15932006098154    4.89801033041850
C        11.26176279842332    4.90473702505181   11.24284945572604
H        10.22010252260076    4.70140207594690   10.98881295356382
C         9.21771425316001    2.70420417990816   11.94751170406952
C         5.30374733982500   11.28941980193615   10.26889200430879
C         7.30644472585740    7.22433510464656   12.44992176129053
H         6.92607343602735    8.19820509125530   12.70291511542071
C         8.20040190874929    5.15715265297890   12.45738480630820
C        10.94128575382372   -0.44327206251779    7.91920459222681
C         7.18799422832293    9.80495658404964    9.96342242527386
C         9.84409888120922    0.68639203744101   11.16830355319052
H        10.21902437310356   -0.31403193266284   11.04262117074220
C         9.79732930333951    1.44348133604631   12.29622624604747
H        10.12689144755363    1.18482741594299   13.28454879455328
C        10.72794103805381    4.44749974149441   14.99080897603670
C         6.78578821830177    6.21606196827926    6.53885236090402
H         6.59600090180752    6.23389874712720    5.48130700669780
C         8.74734240269241   -1.32073670752501    8.43978985615591
C         6.65776172298400   11.08343399189498   10.05041421426633
H         7.31484213427707   11.93701644656529    9.94645203852887
C         7.82941413774741    3.82399118354594    7.00871622416897
C        12.75143455047609    4.98337605202388   13.20218667445727
H        13.53651056601999    5.22773501883331   12.49847177172978
C        13.06548802202550    4.92048450333856   14.54651926839283
C         7.84048626182285    6.28004897604394   13.26837012963122
H         7.98601312643068    6.33278854595504   14.33041218294321
C         4.47469527433594   10.18446223888748   10.40070846345480
H         3.41653116646362   10.33327961811911   10.57193526743608
C        10.46294226926403   -2.78894344147192    7.57485397719129
C         9.67767307832921    4.28144434810359   16.07185868122285
H         8.69419449929966    4.38592352641255   15.62258393293666
C        12.02724265690384    4.67687390157992   15.42637486248461
H        12.23405615456828    4.66461487653192   16.48669894648769
C         6.53090193622835    7.21770034891655    7.45457790532025
H         6.09930906687768    8.18413957253799    7.26545597688116
C         9.17212279350213   -2.57759354591367    8.03583072023978
H         8.48113329912472   -3.40928748012309    8.08011365228517
C         8.65187424777877    9.58612527202411    9.73051914258085
H         8.80590863494651    9.00689631379334    8.82083480755696
H         9.08313936263661    9.01669569791722   10.55295141495911
H         9.17960336450229   10.53323814235360    9.64099520690204
C         4.07732880265627    7.70291368539533   10.46366094885605
H         4.13112287056352    7.08050524605654    9.57110827994836
H         3.04491160017836    8.00778259885003   10.62133743608078
H         4.39878379751282    7.09083221397906   11.30559002894973
C        14.47971029256313    5.14761085245028   15.02752883520886
H        15.11877218361598    5.29866340316046   14.14842332299264
C         4.73844422482912   12.67870939891050   10.33771193049944
H         4.35059759864243   12.97511829357289    9.36171629530936
H         5.50366449648637   13.39522638785201   10.62885156649257
H         3.91937856471968   12.72834255033535   11.05279160908489
C        11.52817699417078    6.35571173961319   10.83122930154027
H        12.56928347234552    6.63531612121743   10.98377468617038
H        10.90341675260698    7.02430183864479   11.42021983012856
H        11.28287043916165    6.49339830244731    9.77949298735337
C        11.33606712402411   -1.71172875571036    7.52310763079883
H        12.34572042995449   -1.86477931511144    7.16485436050722
C        10.91783512180792   -4.15886082616140    7.16171351928111
H        11.61692351350178   -4.10014687510232    6.32945069291572
H        10.07203389326892   -4.77710845980611    6.86817308927196
H        11.42548733315388   -4.65170609424078    7.99239247159329
C         9.76904655091171    2.88262046642221   16.68384356117038
H         9.55490794865995    2.14276249759904   15.91834496780987
H         9.04294418356980    2.76800865073315   17.48774182117844
H        10.76558269648554    2.69683146628162   17.08374395298735
C        12.12467470138911    3.93356107668572   10.43446988957639
H        13.18536801855242    4.15966916064105   10.53241908048472
H        11.85555915652555    3.98730801659396    9.38070791451674
H        11.95712586667448    2.91653689780571   10.78250268372682
C        15.00165132335033    3.92760888369011   15.78897423921872
H        14.41197244664616    3.75562205571857   16.68626831163721
H        16.04096245604714    4.07279763948445   16.08265625506130
H        14.93665344469943    3.03972309958679   15.16365277148414
C        11.88818540316257    0.71634290024653    7.86179382532828
H        12.86064284154493    0.40844831747064    7.48351373819168
H        12.01475534841788    1.14885260871092    8.85334361039389
H        11.48812053642343    1.49757653540899    7.21654175367071
C         7.35142210852540   -1.09658823328390    8.93595327308579
H         7.37131461129693   -0.73668141686934    9.96402559473492
H         6.76951461814136   -2.01492387029102    8.89424689898825
H         6.85600183682162   -0.33459817333472    8.33531255522925
C         9.78740346683836    5.35751122110582   17.15755664571162
H         8.89372181642265    5.34345031372294   17.78075882225978
H         9.87732822174670    6.34400590152919   16.70614833944919
H        10.64541377486081    5.19847692969950   17.80821366791834
B         8.96807250523549    3.86841779336151   13.02912010737564
C        14.56532450323346    6.40391266690820   15.89725932336381
H        14.19994487289738    7.26750665506338   15.34540513809639
H        15.59482519860192    6.59323886558848   16.20022971959754
H        13.95806455061688    6.29093067978086   16.79221899158630

