47
CSD_code = KOPSEN | q = 0 | S = 0 | Stoichiometry = C20H17CrNO7S | MND = 9
Cr        2.80408329439657    2.71324200116088    8.64791529809483
S         6.20005488862724    2.32780422185566    3.64344143426656
O         3.07730565060869    2.74367428981429    5.27772363744843
O         7.17539420079906    3.11113697753288    2.94209423374639
O         5.24511365334538    1.56675766134498    2.89108008545188
O         5.34500865636809    0.73937501078614    7.66990207318010
O         0.29483180220522    3.70172445897766    7.39481324034298
O         0.94260068368188    2.33659471988951   10.94237219081939
O         1.56878008157992    0.15050463498797    7.77668648752419
N         4.29314309738731    4.14476074642039    4.02897788320172
C         3.15717599380546    3.67011237084496    4.31371428833959
C         5.25121217282540    3.43051753506387    4.80315385900212
C         4.41825904871825    2.52695551115881    5.73960185640760
C         4.50322653488020    2.89081301422068    7.19166048257959
C         4.11424613274891    4.17559188269329    7.60281522751736
C         4.14731384933991    4.53878883059920    8.95788165300121
C         4.48172803307236    3.56862720025638    9.90534840133556
C         4.89949539192885    2.28153910852419    9.51250414339257
C         4.91588250316669    1.93400366987242    8.15316524086059
C         5.43958078389638   -0.35200156690534    8.56384976482518
C         7.05195059631524    1.21526920320005    4.77296803507069
C         8.00969085380537    1.72409619064661    5.62879429186952
C         8.65402841709453    0.87189972474914    6.50727500713834
C         8.35022128500989   -0.48612626363819    6.53150577994416
C         7.38852428290540   -0.97673352815680    5.65444932092720
C         6.73532873831752   -0.12911328263546    4.77788141587280
C         9.06982897728339   -1.40928643156578    7.46535305304964
C         1.28231540232704    3.35332874046803    7.87485044919243
C         1.69414099627295    2.49461490035058   10.08010179523765
C         2.07209510581427    1.13211597206368    8.11256147210261
H         2.23391199515954    3.98108136627995    3.85947365647948
H         5.97994463034238    4.08328368314165    5.28027062824770
H         4.66378473468561    1.47010967977671    5.59152601379967
H         3.87627698376915    4.91889362469309    6.84982366324048
H         3.92525373239609    5.55385445368121    9.25954758085022
H         4.53365258013075    3.83389902608125   10.95463366788302
H         5.25383608672842    1.58850048051038   10.26270922400306
H         5.60448775446630   -1.22378343829223    7.93479123067814
H         6.28553519210422   -0.23720572379436    9.24817784431277
H         4.51101145010856   -0.47649134991278    9.12928686815546
H         8.25502058563810    2.77394816553375    5.58698315122519
H         9.40546314465418    1.26119251592764    7.17895943394228
H         7.15169818246365   -2.03076810237631    5.65713098037057
H         5.98711491442831   -0.48869416684833    4.08891990081339
H         8.44646510242051   -2.25829038878541    7.73497720865629
H         9.96699399786258   -1.79400863384162    6.98006085456901
H         9.37758782394106   -0.89030869634373    8.36988599103995

