53
CSD_code = KOPSUF | q = 0 | S = 0 | Stoichiometry = C28H17F5N2Pt | MND = 4
Pt        3.53622109769766    7.78136077577759    4.65346233195140
F         4.42998303910286    8.23511013981634    1.62104756836591
F         3.46561909505860    7.15932312598207   -0.70549694556172
F         1.34610980589129    5.44091708882219   -0.62699276988707
F         0.19193609126429    4.80930303424273    1.76650820347731
F         1.18904963587550    5.90713745110375    4.08259628665478
N         4.33437011896804    8.29036653213991    6.49366270662539
N         1.88108924062078   10.27609197499613    3.87837569726436
C         2.84440438224140    7.07098273757186    2.90369536167343
C         3.39412153652362    7.36772930368155    1.66206518523463
C         2.91235711063108    6.83452135116909    0.47330099578227
C         1.82984361499850    5.96159761732789    0.50989338630875
C         1.24420604259455    5.64040809934229    1.73121734317870
C         1.76049045800638    6.19876046683408    2.89208234953371
C         4.08608111711578    9.34732444944875    7.24756451203075
H         3.38428889167072   10.07596499796492    6.86305374013096
C         4.68632146689410    9.54543955557161    8.49048572573487
H         4.44452069235278   10.42784574500602    9.06170691057371
C         5.57788433876328    8.61167147582242    8.96779851221063
H         6.05877215156491    8.73883978118298    9.92677025547368
C         5.86022251980911    7.48017347714070    8.19081941306085
C         6.76346204148931    6.45159257826370    8.58313301288684
H         7.26129761898221    6.54868815502625    9.53693950117641
C         6.99149813611660    5.38205197309001    7.78147277734460
H         7.68011350149551    4.60764443864211    8.08906133239531
C         6.34291753571527    5.23702977265514    6.52082622153868
C         6.55964512663856    4.14342824200931    5.67121797260441
H         7.24714166435448    3.36498736079651    5.96966950639900
C         5.89638577164180    4.07560523042420    4.47024936746122
H         6.06422926562441    3.23293017238667    3.81411171404493
C         5.00275177946918    5.07648229463791    4.07325712716196
H         4.51186019291484    4.96288368995940    3.11559148867010
C         4.74057170760468    6.18253585119636    4.86606467074241
C         5.43920087395369    6.23551971530896    6.09956345202433
C         5.20502268501324    7.35979750341208    6.94520170681745
C         2.44596323753643    9.37667821671948    4.36540706508922
C         1.19855374003303   11.30725394476018    3.32593200772916
C         0.66188875068351   11.15066225115836    2.04037689470785
C        -0.03444941378764   12.21778896867169    1.49637986135634
H        -0.45690555448967   12.12168297237842    0.50769094854366
C        -0.19066189427597   13.39829001503426    2.20287149922081
H        -0.73591479184623   14.21873912134810    1.76196720053915
C         0.34921731855218   13.53457022535427    3.47088733001217
H         0.22389284962425   14.45935943309534    4.01383114948508
C         1.05234960115188   12.49471957557343    4.05579864123058
C         0.86168778400747    9.86904293781071    1.29739040016145
H         0.31011361053359    9.87583184327279    0.36183468459099
H         0.53571788029170    9.01858099158014    1.89628941166307
H         1.91985749926993    9.72715751156706    1.07806223947895
C         1.64894356572673   12.60824191066869    5.42391187335995
H         1.21996547993815   11.85768509649187    6.08852647063699
H         1.46188169682909   13.59264354697171    5.84373002790992
H         2.72600829155269   12.44342527877164    5.38313567319839

