70
CSD_code = KOPTOY | q = 0 | S = 0 | Stoichiometry = C28H35BFeNO3P | MND = 6
Fe        2.12913102435172    0.92880591031517    7.87685552480802
C         1.49793615899533   -0.26387310782537    9.00795700547017
O         1.07807867665854   -1.11068462214215    9.66942166520884
C         3.45802736342318    1.58862959905498    6.93596771054200
O         4.30500327706606    1.91487080820282    6.20408738215314
C         0.67625553835074    1.93072946120272    7.53714722132186
O        -0.24911018053571    2.58410533694701    7.35918443110022
P         1.78475040669341   -0.51386026525947    6.27554437293412
C         2.78945132262386   -2.01873134310609    5.92733258779540
C         1.75843418458253    0.22062246397562    4.59426031256731
C         0.11596240266165   -1.28033063184264    6.30977852296559
C         2.66109949609042    2.38222775109999    9.42750114352200
C         1.99461693178880    2.21464744604144   10.72963558571787
C         2.02653404402224    1.15700533595238   11.63093443633417
C         1.32872743472767    1.25982957756522   12.82086245113416
C         0.60503846257137    2.40547939379146   13.13104379861219
C         0.58182265067302    3.47824847561794   12.25907854710816
C         1.28036354944609    3.38592770394632   11.06526082655607
C         1.46702436767736    4.34250746776412    9.99981778424335
C         0.98916880251510    5.63492088311139    9.84956205768186
C         1.34890115479245    6.35306977868141    8.72467477621869
C         2.18128475396949    5.78761227246993    7.76594146155425
C         2.65941833252925    4.49757538179747    7.90496215009376
C         2.29782514367987    3.75257662066672    9.02052928943592
B         3.84341906638056    1.51260200770512    8.99471615327807
N         5.14112778689652    1.26989404711244    9.42136550849513
C         5.80095417200214    2.26889722323477   10.31115748770755
C         7.33461523669587    2.23033114222416   10.20164146034909
C         7.91314101352992    0.83590054578611   10.33644287586669
C         7.33136337054852    0.01372122617591    9.20479553273229
C         5.79550139884826   -0.04706120296974    9.22062154171966
C         5.39628686138396    3.68837194605939    9.88376840071234
C         5.38141177158209    2.08207131263206   11.77506161948581
C         5.30982967922565   -1.00870859477122   10.31728873038776
C         5.39936466045403   -0.66579743553043    7.87648529796108
H         2.82742013889446   -2.64466458550355    6.81854505532000
H         3.80253192305407   -1.72614399037214    5.65544101686062
H         2.33960650781592   -2.58027698028619    5.10766417221124
H         1.05532852913761    1.05308138016272    4.59056310625497
H         1.46164747336901   -0.52070377517506    3.85186917427399
H         2.74907097400830    0.60312524054026    4.35339084273017
H        -0.63008060536145   -0.48994327339058    6.38932726751362
H         0.03187995460436   -1.92534858897964    7.18342077973151
H        -0.05897485017948   -1.86475097252037    5.40594686736186
H         7.73920872101113    2.88805963807293   10.97255564748366
H         7.62765757723461    2.63428612305988    9.22936735043684
H         7.66881500128556    0.39960332294693   11.30487505244490
H         9.00145445290278    0.87020125316079   10.25500373838570
H         7.65304622609922    0.45514878807088    8.25815120923816
H         7.70867138847907   -1.00986507578018    9.23952486925774
H         4.40765756062106    3.94855226887325   10.24250224511414
H         5.40975163526707    3.78055517121653    8.80075000592896
H         6.10112186686982    4.40650562026189   10.29714470236600
H         5.72526407904322    2.93376361793709   12.35752535309305
H         5.80522210514620    1.18396223141777   12.21319318894294
H         4.30005302979630    2.02892718356463   11.85222353915197
H         5.63452239157237   -0.70023849739077   11.30508661033461
H         5.69136008129341   -2.00996245025173   10.13011781173875
H         4.22276696567223   -1.04566865279097   10.30849339623121
H         4.34195726554069   -0.91011890737631    7.86809640227966
H         5.97217798438059   -1.57735803085345    7.72105507019984
H         5.61321769575944    0.01542049503473    7.05884588046652
H         2.58867928347372    0.26097595454271   11.41053251747101
H         1.34682429523515    0.43690929577632   13.52121677992915
H         0.06461345737431    2.45780728843290   14.06523360082215
H         0.03388291718368    4.37613720838071   12.50581411325274
H         0.34840451341566    6.07294836616073   10.60118650045324
H         0.98443133524258    7.36096280965720    8.58765532041740
H         2.45702271781325    6.36543036228332    6.89507431083008
H         3.29602509008187    4.07954624537071    7.13992084773171

