43
CSD_code = KOPYUJ | q = 0 | S = 0 | Stoichiometry = C14H24N2S2Zn | MND = 4
Zn        9.11326843590746    5.93576261041846   10.22069619459852
S        11.30957686989642    6.64848618863520   10.10823966967174
S         7.44491818428559    4.56233734729595   11.03917567666721
N         8.99974227875557    6.18589212987602    7.96740516592510
N         7.53866107719251    7.56033982131901    9.94191173972755
C        11.46809861359382    5.96595606081114    8.41007509338947
C        10.35647491121930    6.55544744389877    7.53185445537459
C         8.04806821215065    7.20220085216129    7.61613359799396
C         7.85382010745712    7.44455367864026    6.14227707446819
C         6.77720952498641    8.43741524762064    5.84460465051854
C         6.18214076573074    9.16243123748326    6.77288152569056
C         6.49867039738747    9.05239239654083    8.22999559020344
C         7.41034318428508    7.89751611897024    8.55194366234423
C         6.28877265767733    6.99048249955099   10.47263756110885
C         6.50014208060556    6.01708361374113   11.63959506745982
C        12.81521265329585    6.43231849664003    7.86147010499634
C        11.41517739688335    4.44291732525233    8.44119968746433
C         7.22980210259437    6.68117168317440   12.80165718807937
C         5.13490988729235    5.51035622173502   12.10083859258805
H         8.73899606306700    5.30989086876262    7.51672468721807
H         7.76062367122221    8.40294786780470   10.46993895376799
H        10.53537423859886    6.24846213287813    6.49230405881063
H        10.43713933738701    7.64436554017593    7.59412077699890
H         8.79161823786288    7.79744912790096    5.69578965142570
H         7.61830978210044    6.48988411041379    5.65422143966045
H         6.51399909836248    8.54642491018390    4.80223003819885
H         5.41792065080254    9.87999605192297    6.51073016213978
H         6.96976893347779    9.98428582073205    8.57245150948768
H         5.56294140923008    8.95287286797280    8.79058822911488
H         5.60386762904620    7.78253176907062   10.80577294764490
H         5.80915633130688    6.43471774202189    9.66198956988820
H        12.96587000104888    6.06641059902437    6.84648776413783
H        13.61553272955948    6.05881897290717    8.49409571894571
H        12.86581687893103    7.51842823971402    7.85955810718879
H        12.21497923257538    4.06467452847284    9.07318111111121
H        10.46804551253991    4.08507608104669    8.85227245863165
H        11.54352076592463    4.03757367385459    7.43690797707722
H         7.34313323261623    5.96753126776403   13.61402799223864
H         6.66349429477653    7.53841558139794   13.16743651332628
H         8.22876787558843    7.01220359781660   12.50727857648498
H         4.61609926493720    5.02296030600314   11.27898807971552
H         4.52335658931078    6.33218140977053   12.47162519269748
H         5.26655889852983    4.78173595862140   12.89598618581879

