47
CSD_code = KOPYOD | q = 0 | S = 0 | Stoichiometry = C14H28N2S2Zn | MND = 4
Zn       -0.93850525458281    0.72666227717611    2.55215943022071
S         0.32275601644647    1.16883179688222    4.44313609456320
N         0.43400926542541   -1.04761472640444    2.14685165223355
C         1.79957466014248    0.37202313440320    3.69453512093623
C         1.42258700599485   -1.04203568473962    3.22695594886088
C        -0.37954587857417   -2.26630531398040    2.02245596390525
C         0.45210206020510   -3.55402348974599    2.09266621121139
C        -0.42861704166650   -4.79337808163804    1.98608279356187
C         2.85337818888900    0.25614773239027    4.79405645792988
C         2.33399757104493    1.22462879918371    2.54954302749811
H         0.92741764226730   -0.90738537295262    1.26924854800755
H        -0.85131545606940   -2.21327317626795    1.03501319814180
H         1.00090662193827   -1.55940994793452    4.09048613197589
H         2.34250579688079   -1.56185473906363    2.92470836425745
H         0.98991036986607   -3.59531980701495    3.04081408237503
H         1.18946447501729   -3.54583828259824    1.28613258896677
H        -0.94772711963321   -4.80019341415284    1.02523876197223
H         0.19293201736211   -5.68866198334634    2.03788393851405
H         3.75980062430933   -0.21019539886780    4.41004216001350
H         3.09792691942484    1.24490380327784    5.17210066108782
H         2.47217812924485   -0.33606650534569    5.62247433462549
H         2.61149005918718    2.20593611842881    2.92685953104449
H         3.21565201654937    0.75885407427292    2.10794522789543
H         1.57849594677901    1.36781183701418    1.77362141132896
S        -2.19976869008204    1.16882371989268    0.66118151735395
N        -2.31101691583585   -1.04761433559796    2.95747855130541
C        -1.49746171266718   -2.26630446426208    3.08187683717318
C        -1.44838981064818   -4.79337685445275    3.11825573359371
C        -3.67658329135499    0.37201958641547    1.40979409060685
C        -3.29959642737921   -1.04203828863782    1.87737608076396
H        -2.80442346029283   -0.90738145744367    3.83508212886178
C        -2.32910942320732   -3.55402292621094    3.01166928088904
H        -1.02569239029594   -2.21327023312858    4.06931959911969
H        -0.92927973732680   -4.80018965940336    4.07909980238048
H        -2.06993860893806   -5.68866105207961    3.06645688146954
C        -4.73039066167641    0.25614139468440    0.31027651997409
C        -4.21100293277543    1.22463059754036    2.55478426855668
H        -2.87791834001931   -1.55941606206969    1.01384685467982
H        -4.21951493469496   -1.56185614569181    2.17962766035349
H        -2.86691759095034   -3.59532159313877    2.06352141929981
H        -3.06647195846314   -3.54583592799614    3.81820275161344
H        -5.63681158002781   -0.21020199399698    0.69429485666945
H        -4.97494099899249    1.24489634429233   -0.06776803261449
H        -4.34919370819615   -0.33607555346162   -0.51814149809922
H        -4.48849686634124    2.20593573609765    2.17746336587946
H        -5.09265587322938    0.75885852977522    2.99638752016570
H        -3.45549872305341    1.36781698989684    3.33070216887678

