23
CSD_code = KOQBAT | q = 0 | S = 0 | Stoichiometry = C9H7CrNO5 | MND = 6
Cr        2.17117775403027    3.25435685222740    4.82527441395318
C         1.68324853248395    2.04383207878797    3.49747840653220
O         1.38871805437576    1.28289335407878    2.68606560666978
C         1.06180822283076    4.46102021742926    3.92165044778183
O         0.34641664263211    5.05193145386036    3.24277052007006
C         3.18308082076673    1.83678384702498    5.49453597120640
O         3.73505124366793    0.86102382145705    5.76383611584849
C         3.64675109760628    3.86628779719852    3.85749866740716
O         4.56670618793292    4.26729213194854    3.29705842125898
C         0.74956344981149    2.75962235310116    5.92836474124409
O        -0.10733968304031    2.48495884432056    6.64451457750687
N         3.50335896891271    4.33724810892808    7.30673746869824
H         3.92317494820001    3.43327739542545    7.47545231544966
C         2.71021219390863    4.57001355039291    6.28897633941954
C         2.25146527439530    5.99695906564523    6.44146154024757
H         1.20958297325729    5.97224924350312    6.77563305737238
H         2.27673979033863    6.53202610521619    5.49286804170383
C         3.16688506131560    6.63067086834016    7.50409527681892
H         2.63613502498504    7.31828485941324    8.15746419547882
H         3.97882711861609    7.17249405728373    7.01945135315289
C         3.71579678697884    5.41924759783159    8.25783553718266
H         4.77429312429135    5.51027179355886    8.50860839999756
H         3.15634641170232    5.21805460302453    9.17836858499859

