101
CSD_code = KOQHIJ | q = 0 | S = 0 | Stoichiometry = C50H43CuN2O3P2 | MND = 4
Cu       -4.88793811581879   -5.13715412350382   -5.89008819907068
P        -3.12929640596347   -4.57336332878320   -4.18389426025083
P        -5.42377836101373   -7.23980398801251   -5.35530641387234
O        -5.90879851109926   -3.58321805012479   -5.14811975399756
O        -4.21357207520036   -4.24988320122214   -7.49153201168069
O        -2.99041378196872   -7.12760923736233   -4.23493006927324
N        -6.06198657675719   -1.28445112797005   -5.07869545780947
N        -5.61632524296310   -0.21109562253054   -5.78842005274914
C        -5.62771374919480   -2.45897634019522   -5.63721154983772
C        -4.85911234156953   -2.08814355228424   -6.79395604481232
C        -4.21695642892139   -3.00586580508727   -7.65178220399775
C        -6.80512657189175   -1.06788679845259   -3.91971285787992
C        -6.95840135254676    0.24232692629364   -3.46681655608743
H        -6.50883670380419    1.03866104272819   -4.03716951660013
C        -7.66961197136106    0.49820333980775   -2.31231346811211
H        -7.78105695402477    1.51661843102090   -1.96858827797921
C        -8.23701430883642   -0.54172758211189   -1.59299092828206
H        -8.78924719081553   -0.33952228821379   -0.68678957994883
C        -8.09584427971579   -1.84076845545235   -2.04961325702992
H        -8.54451481441327   -2.65744680393325   -1.50163850530431
C        -7.39039845606259   -2.11101827011137   -3.20766398116185
H        -7.29414495543330   -3.12297312069968   -3.56130261858117
C        -4.92246155942346   -0.65240591418620   -6.79703935239819
C        -4.35977478557904    0.36492132470639   -7.72888448412263
H        -4.57482548064545    1.34652855795107   -7.31295026042112
H        -4.82935356364289    0.29797857492334   -8.70992483979722
H        -3.28426157599654    0.25662453430805   -7.84548287296757
C        -3.42136914259254   -2.49517078012094   -8.84918165874713
H        -3.85074083085800   -1.55963348854176   -9.20477763852644
C        -1.98011089715133   -2.25662815866512   -8.38709903492740
H        -1.94740247292410   -1.54607493933097   -7.56391396602992
H        -1.38030266330610   -1.86682594019357   -9.20748036960036
H        -1.53950096794618   -3.19209728296470   -8.04704132944027
C        -3.44912427280607   -3.51495005205209   -9.98539348490595
H        -4.46936050560802   -3.67175886447805  -10.32893539891406
H        -3.05310209707627   -4.46746886122832   -9.64300889044888
H        -2.84883924938439   -3.16168524223704  -10.82114044592696
C        -3.14801934036489   -2.84575223165925   -3.62524557340060
C        -3.99588798987428   -2.51245858418796   -2.57018905170337
H        -4.52060432516353   -3.30003889853800   -2.04577725146424
C        -4.17775462905075   -1.19116632713145   -2.21088915823421
H        -4.83308330772735   -0.94066282326419   -1.38915646924129
C        -3.54359424244306   -0.18588853570401   -2.92339901047771
H        -3.69985195515829    0.84757552875858   -2.65340456479991
C        -2.73140534512679   -0.50687134355405   -3.99794555315088
H        -2.25694197141246    0.27809726794864   -4.56914549172119
C        -2.53616864313473   -1.82926052007512   -4.35206013930180
H        -1.91111265002116   -2.08008667273216   -5.19859519232805
C        -1.52706759148144   -4.70405958018930   -5.06037462680165
C        -1.49222356695976   -5.34612433270853   -6.29164392526551
H        -2.41700062877648   -5.71261146231451   -6.71957872200579
C        -0.29021623875415   -5.49869522431959   -6.96141678212101
H        -0.26568712076723   -5.99768745825362   -7.91980994782815
C         0.87955737398429   -5.01041198848972   -6.40367020732352
H         1.81775350076877   -5.12621101202296   -6.92683795714583
C         0.84846388253983   -4.37344895630447   -5.17247447752144
H         1.76244535698587   -3.99544600135886   -4.73704635647368
C        -0.34860188577715   -4.22472623326479   -4.49732211704575
H        -0.37638550266809   -3.73436063017035   -3.53346642902230
C        -2.61666924325250   -5.49074565936826   -2.68627042661697
C        -2.31375754172761   -5.04307438547188   -1.41415887052491
H        -2.30503309193099   -3.98495246167483   -1.19758976739418
C        -2.02044272775679   -5.96391491453068   -0.41853139260243
H        -1.77728250776754   -5.61666178465395    0.57452277547452
C        -2.04566910473567   -7.32056709912576   -0.68563396972091
H        -1.83126311077456   -8.02920730914861    0.10014628849058
C        -2.34992820699627   -7.78925001457360   -1.95667438475031
H        -2.39230928771850   -8.84919155202353   -2.15803229489315
C        -2.61909864532733   -6.86766472249394   -2.94797985518834
C        -3.03962904971236   -8.36860971311464   -4.80212325550348
C        -2.00569027002310   -9.28706116204552   -4.80187224955942
H        -1.08749273159512   -9.07407791419759   -4.27485000943000
C        -2.16499572609051  -10.46917895230787   -5.51084508807218
H        -1.36630260239602  -11.19549826214674   -5.51617664303929
C        -3.32929970737364  -10.71645357552290   -6.21807331645388
H        -3.43626919021308  -11.63836567439735   -6.76970737235389
C        -4.36060366965475   -9.78944034664317   -6.22543164380024
H        -5.26830932068793   -9.98458514750986   -6.77767479979894
C        -4.22743685143417   -8.61486084110018   -5.50307513296323
C        -6.90484766513842   -7.99455021129995   -6.09746444669430
C        -6.95618963571595   -7.99475019813148   -7.49051866047586
H        -6.13223867512217   -7.55981376331927   -8.04254965353311
C        -8.04384778337671   -8.53607539615380   -8.14786915072240
H        -8.07714156849109   -8.54180121083574   -9.22765385743392
C        -9.09819183100137   -9.06361967640853   -7.41785442238788
H        -9.95174696696316   -9.48373828341284   -7.92919541637560
C        -9.06299510706408   -9.04112603267402   -6.03358279901158
H        -9.89111194517362   -9.44148064505132   -5.46674883861372
C        -7.97185535838132   -8.50674623054067   -5.37005736733745
H        -7.95026947695208   -8.48534810190559   -4.28970939259495
C        -5.73403940241801   -7.30847093894785   -3.55849076564570
C        -5.67177493316838   -8.48962895305647   -2.82519667318181
H        -5.49500654650937   -9.43074282987532   -3.32952174548838
C        -5.83032219211307   -8.45567320780106   -1.45166826974918
H        -5.77831777956590   -9.37300318893350   -0.88288300435868
C        -6.04955174681377   -7.25056587591523   -0.80371580733242
H        -6.16257510910638   -7.23043997432944    0.27024152050075
C        -6.12337348408470   -6.07499877329923   -1.53202283074109
H        -6.30011125574295   -5.13643748259064   -1.02687529994275
C        -5.96273958759381   -6.10147957748316   -2.90582228168421
H        -6.00716332829708   -5.19130744829798   -3.48937083241186

