104
CSD_code = KOQHOP | q = 0 | S = 0 | Stoichiometry = C51H45CuN2O3P2 | MND = 3
Cu       -4.38295584701214   -4.04077833561724   -0.66306055684986
P        -4.10410008513636   -2.54237843092159    1.04578652407938
P        -2.48667472415838   -5.11718531989162   -1.22142124994825
O        -9.40969263639835   -3.42911151227049    0.00823626404665
O        -8.20208535158624   -1.02713747898620   -3.54368178782959
O        -1.94287619568830   -2.51345236349416   -0.74211517644789
N        -7.22927256368878   -4.06797490667441   -0.35179556933950
N        -6.21821454894450   -3.79519131296388   -1.24784740348265
C        -8.38820836631117   -3.34962762264354   -0.66766840239843
C        -8.03966860283343   -2.59843077930385   -1.84673126451468
C        -8.77851618429824   -1.65979333101930   -2.66516768964975
C        -7.01519721801862   -4.94045799680364    0.70424419296345
C        -6.07242397259000   -5.96554189820139    0.58782732750133
H        -5.56000389535022   -6.12542743212562   -0.35223101030558
C        -5.81833939240486   -6.80242690832863    1.65844039775893
H        -5.09189679483580   -7.59589521678426    1.54834476743923
C        -6.49982658376327   -6.63987172564124    2.85271766212251
H        -6.29683066618937   -7.29375148685471    3.68815281013433
C        -7.45785986538374   -5.64374930995517    2.95969166993585
H        -8.00497219930094   -5.52036352163116    3.88287927024314
C        -7.71942129914205   -4.79834571158633    1.90075413171084
H        -8.47201025501982   -4.03200019452403    1.97778373322457
C        -6.68996631307509   -2.90249306222046   -2.10558750475337
C        -5.80126554963898   -2.35308307564391   -3.16068398566632
H        -4.77784167147976   -2.69946585397781   -3.00559281706032
H        -5.83234343421657   -1.26598955956933   -3.13949509191784
H        -6.15245247994455   -2.65848191026256   -4.14483725471028
C       -10.28638627578251   -1.45555399616579   -2.46096877479090
C       -10.53682674653611   -0.80563406320882   -1.09698767416348
H       -11.59406882082798   -0.56854948895480   -0.99023011031063
H        -9.96520413211003    0.11780603737033   -1.00701570525575
H       -10.25628692995400   -1.48864679784425   -0.30124182461345
C       -11.01653204635334   -2.79750972256522   -2.55582950783959
H       -12.09257469098469   -2.63278079050231   -2.53813242600659
H       -10.75532576518948   -3.43423711672148   -1.71729782721017
H       -10.76013369604327   -3.30638697842479   -3.48381090388763
C       -10.80050460792185   -0.52377475688974   -3.56282866707922
H       -11.86727638267758   -0.34845218141566   -3.43862537167503
H       -10.62714927306565   -0.96369657383645   -4.54231135612887
H       -10.27896799759998    0.42985849443777   -3.52755659345517
C        -5.58052383733376   -1.95387671468027    1.91369240275619
C        -6.52494630892102   -1.27827669733192    1.14051096422156
H        -6.30458313205327   -1.05382359531791    0.10396821166681
C        -7.73478561980628   -0.90882313807472    1.69294879530598
H        -8.46570113477556   -0.39243622221545    1.09073761003511
C        -8.01592262675018   -1.22716232597163    3.01286810836562
H        -8.96865095413408   -0.95241476003518    3.43967814888447
C        -7.08553138191881   -1.91071630474081    3.77799312447896
H        -7.31049663940223   -2.16573692622016    4.80329446056624
C        -5.86983299349666   -2.28310385768517    3.23234482092720
H        -5.14901136844047   -2.82933770651030    3.82512897646649
C        -2.99686704898733   -3.13301893321348    2.36436707600835
C        -3.10165108485270   -4.48322734117037    2.69068760664129
H        -3.86425555101564   -5.08108105772989    2.20476604992966
C        -2.25357118684816   -5.03962155524560    3.62880888334610
H        -2.33960647345527   -6.08603207103196    3.88300406222584
C        -1.28920209652635   -4.25328653598756    4.23898911883260
H        -0.61823318464423   -4.68809247619532    4.96463671114623
C        -1.18808375068043   -2.90851890474305    3.92321125010489
H        -0.44223707484829   -2.29529649058373    4.40737928388888
C        -2.03822467192031   -2.34417876213188    2.98923432977859
H        -1.96016934112965   -1.29319581381553    2.74691039845096
C        -3.27123879409405   -1.00963247832358    0.51938862328022
C        -3.62968635650978    0.28617051471149    0.86781694452181
H        -4.45598591189548    0.44857591924076    1.54482509717281
C        -2.92531337165957    1.35891567824247    0.34846267038679
H        -3.20243371627879    2.36449770293744    0.62645912264554
C        -1.87347787594278    1.15128619288968   -0.52905658919119
H        -1.33435506420386    1.99328659000264   -0.93545924207614
C        -1.51061355552928   -0.13521957941714   -0.89632540045265
H        -0.70261572363688   -0.31127658054586   -1.59096274438570
C        -2.20893774901278   -1.20669179502661   -0.36886623680882
C        -0.92581858817931   -3.19798473495693   -0.14180582705307
C         0.10247812844976   -2.63070663378157    0.59082508715444
H         0.14132994611625   -1.56172155064111    0.73906989277712
C         1.07303179453894   -3.45507097996140    1.13623000235309
H         1.87709161161660   -3.01710264781450    1.70775154499329
C         1.01977898401395   -4.82620568301306    0.95453069446914
H         1.78434475071136   -5.45702153023464    1.38119336644734
C        -0.01493873622104   -5.39412402647535    0.23011840843291
H        -0.06207753245314   -6.46467473996745    0.09499303616437
C        -0.99570707934090   -4.58541852893403   -0.32266936472571
C        -2.03509976115643   -4.82383051296468   -2.95704304127076
C        -0.73413403881212   -4.58193592361582   -3.38168730214463
H         0.07584999985104   -4.56965225402141   -2.66557923925122
C        -0.48331259132965   -4.35745134402316   -4.72399092154841
H         0.52743528710067   -4.16837430108542   -5.05527465319378
C        -1.52071844238290   -4.37486570476790   -5.64228581847712
H        -1.31745233683364   -4.19572579939014   -6.68752553293169
C        -2.81889718881423   -4.61760087251330   -5.22132703015221
H        -3.62815766998507   -4.62728440508013   -5.93592664692500
C        -3.07702694985515   -4.83742092226099   -3.88148969668602
H        -4.08646663473912   -5.01925340937744   -3.53384076823267
C        -2.41058965736693   -6.92741892679918   -1.06416099886475
C        -2.37076859010667   -7.78951086743931   -2.15318604618932
H        -2.31396866314814   -7.39128196303791   -3.15629842121870
C        -2.39833158239462   -9.15850264838347   -1.94944449389586
H        -2.36288165180384   -9.82606589889008   -2.79770750709883
C        -2.47302261232656   -9.67376802969809   -0.66641637911788
H        -2.49559017333779  -10.74234234297928   -0.51354413486213
C        -2.52526985207217   -8.81676033586044    0.42241586854814
H        -2.58849247090509   -9.21818182910947    1.42360511324745
C        -2.50401845613054   -7.44996711068659    0.22537457540205
H        -2.54979960072901   -6.76996332369779    1.06604835104795

