38
CSD_code = KOQNAH | q = 0 | S = 0 | Stoichiometry = C14H14N2O7Zn | MND = 6
N         0.46971616931014   -1.27779487557404    3.54483147825974
C         0.93585534318776   -1.24627049734474    2.30461752664192
C         1.43408866204827   -2.36019751872139    1.65864092719665
C         1.44362139661431   -3.57982354340044    2.34076711920964
C         0.96009699895460   -3.62567648861920    3.62590799120453
C         0.46993926356551   -2.45145142610171    4.22377598599574
C        -0.04753783902417   -2.43292145400069    5.54948038521347
N        -0.48123372506476   -1.29897245574314    6.02875194886114
C        -0.89479757132732   -1.10728043969797    7.32033062978299
C        -0.40734509886392   -1.86913392865795    8.39399655520092
C        -0.87076418017037   -1.62209197763744    9.66135930460665
C        -0.29835888146469   -2.51163640015889   10.85836997175836
O         0.88918525245466   -2.75307093649607   10.71404319744336
O        -1.15489392949654   -2.77608951648574   11.68285441286430
C        -1.78152639788328   -0.61676403904888    9.92429626528740
C        -2.15608064662582    0.23953613518004    8.89228789467707
C        -1.73515110695759   -0.00709090447990    7.60260893823975
C        -2.14633551794168    0.79339955682270    6.39782314063627
O        -3.28763876996372    0.73197535276722    5.94975716807581
O        -1.18889306346398    1.43021703738823    5.82331735655921
O         1.52144839233504    0.95371783583859    5.64573733711328
O        -2.30107766167678    0.01803868090850    3.63030038314264
O         0.05840255520024    1.85582751300730    3.36602614681945
Zn       -0.41971951538808    0.12708449395278    4.63807344127038
H         0.90114350847628   -0.28445807186522    1.81413225148610
H         1.80074296406214   -2.28617326606209    0.64845126799576
H         1.82384211966964   -4.46953208277425    1.86279607907066
H         0.94828783419248   -4.54521404101849    4.18969504381526
H        -0.08640897951922   -3.35558691362609    6.11859572246065
H         0.36941872955796   -2.60275907573528    8.23817922572734
H        -2.18010481487854   -0.50182236150693   10.91971616223110
H        -2.81919372155893    1.06932136282427    9.08491464952249
H         0.97982064233292    2.06331866589951    3.55474107150320
H        -0.46233610940235    2.50650089985874    3.85437090406962
H         1.00482153155987    1.49465692992168    6.25849596756389
H        -2.90767303810338    0.30180329148586    4.36691513232958
H        -2.47905452839662    0.61720225618573    2.89966585717653
H         2.01299373364713    0.33191220271235    6.19027515898552

