69
CSD_code = KOQTUH | q = 0 | S = 0 | Stoichiometry = C31H30ClN2NiPS3 | MND = 4
Ni        0.88773802634032    3.00724682427904   10.78538790835823
Cl        2.67347298816584   11.38438864056427    6.78180893006123
S         1.56243625792978    4.08314811300059    8.98665905680022
S         2.30716261494901    4.54547087551123   11.69626871614824
S        -0.68525481146725    0.51207507865529   14.16574285746231
P        -0.67580455352796    1.84183376018182    9.81443145081612
N         0.62702206235553    2.12661580163732   12.35889589134337
N         3.74062515304153    5.49221945483176    9.65847160951911
C         4.61328457601560    6.12090254922492   10.62894695410731
H         5.59026986122858    6.26112407510734   10.16129039504138
H         4.72528070593490    5.44077384238216   11.47942435959271
C         4.01631394817513    5.71774164574788    8.25220678532619
H         3.40907120818336    5.01465754030607    7.67423167588525
H         5.07370825812772    5.50382655678598    8.06890322595959
C        -1.05300055912317    0.20810217593001   10.50851190974262
C         2.67495551489218    4.80354996358031   10.06264236466209
C         0.02318077885443    1.42819082312569   13.09850195311720
C         0.02548217197309   -0.66343250051580   10.64789797456002
H         1.01289345435895   -0.32846544178618   10.35098021443410
C         2.36661974576033    7.56039720397537    7.84418197575936
H         1.58144987077091    6.86525209014594    8.10047725170403
C         3.68967244240923    7.13204805072040    7.84777991436414
C        -2.14946123113433    2.87135316013346   10.08357374473236
C        -4.31660541171587    4.51930453223989   10.58874135810543
H        -5.16526220635946    5.15692750422832   10.78712986590742
C        -3.36089907500429    2.63963806433196    9.43903549135777
H        -3.44865721657272    1.82448245956820    8.73366381281431
C         4.07387228660777    7.46273276606482   11.12919538104429
H         3.95569702229517    8.14744674437137   10.28700837162990
H         3.09127131868141    7.30350603883485   11.57630956839234
C         3.06296737302852    9.75061569196382    7.18956606905463
C        -0.58143000836004    0.30778997925109    7.44733113545152
H        -0.46576040426885   -0.56020082087387    8.08076278809486
C         5.00847727316167    8.08114069732985   12.16477037000421
H         5.99748459068882    8.22149286547496   11.72196318239262
H         5.11434113832068    7.39675145626514   13.00868400654829
C        -0.86624249209245    2.68404197512346    7.19235194068519
H        -0.96885631199243    3.66392376938696    7.63899071407289
C        -0.87774459565596    2.53641501433782    5.81914549060724
H        -0.98917270478902    3.40387071976972    5.18545251743177
C         4.38617269147501    9.34020513788882    7.18126367535888
H         5.16691472218353   10.03737537348174    6.92143725669771
C        -3.10612483155655    4.76471345193263   11.21720891067157
H        -3.00830721331440    5.59399284510069   11.90157492845516
C        -2.31497220072843   -0.17831228690703   10.93708406679429
H        -3.14751043373233    0.50623851986303   10.86689977090329
C         2.04801505360122    8.86488473677509    7.51888716604500
H         1.02156587381762    9.19558177321960    7.51871306918600
C        -0.74295038602672    1.27679363184455    5.25608377738480
H        -0.75011475604513    1.16164115907434    4.18235333468835
C        -4.44139731699804    3.46293072488203    9.69932255649040
H        -5.38511527343671    3.28196789620974    9.20586862096827
C        -1.42648093626750   -2.30886328497440   11.60271731498147
H        -1.57312855416241   -3.28511033623432   12.03994054290702
C         4.69213285889693    8.03239291025132    7.51359040483710
H         5.72430210692857    7.71355779526868    7.51039099588060
C        -0.59587598424133    0.16654008756721    6.07056879495517
H        -0.48995934756386   -0.81523868792947    5.63276310695066
C        -0.16220021134724   -1.92017768293164   11.18782385714824
H         0.67658977714557   -2.59061527697879   11.30268891402732
C        -2.02390155997358    3.94253825746440   10.96355417545564
H        -1.05585782668731    4.12075310842479   11.44943607843525
C        -2.49588811677395   -1.43869810757994   11.48062495200762
H        -3.47546280404289   -1.73537005298907   11.82501375880028
C         4.47941670337080    9.42065416809204   12.66041935135717
H         4.37803184868009   10.12051435892555   11.83368716673270
H         5.15638520889626    9.85028445984136   13.39449962078721
H         3.50424780240628    9.29482407222429   13.12451295577063
C        -0.72552595459737    1.56830150685666    8.01515169266614

