49
CSD_code = KOQWUK | q = 1 | S = 0 | Stoichiometry = C24H18ClN4NiO(1+) | MND = 6
Ni        3.91557392982024    5.66473167591109    3.43008183863491
Cl        4.59428100125507    4.57229330270379    1.75747837609282
O         5.85385233140382    4.67096732637069    4.59347288570182
N         2.17652593820331    6.74240200900470    2.28747339591928
N         2.57404157032283    4.36546587304173    3.57655233480782
N         5.20256003694653    7.05747341940586    3.19747642773807
N         3.43072811302611    6.59372001121849    5.13352723373784
C         2.01997425246310    7.86522154746818    1.62456326303380
H         2.80924958917134    8.59877236207112    1.72865210962115
C         0.90721191407515    8.13450837391666    0.82025943201522
H         0.83931106437459    9.07281981122291    0.29380403165682
C        -0.08488193608069    7.19008558147594    0.72314151737450
H        -0.96445779726208    7.36107168759685    0.12046954196147
C         0.05199127007054    5.97762399407102    1.42097470850122
C         1.22361394136144    5.79588163342265    2.18787259872666
C        -0.93006599039517    4.94741556763007    1.37953048291650
H        -1.81745850003113    5.11119744084931    0.78720302070508
C        -0.75437710200410    3.79249864762420    2.06405298858389
H        -1.49919979246934    3.01199726629600    2.03515599846112
C         1.42539760201054    4.55797640948633    2.89143101747571
C         0.42408143221622    3.56152720786257    2.83105618324171
C         0.64446195079413    2.36117705506183    3.52524792832177
H        -0.09911882254267    1.57962025810884    3.48952580733242
C         1.81228475581057    2.20117873778695    4.23037478200523
H         2.01951433492045    1.29370344844691    4.77385760911387
C         2.75537966529428    3.22909669598752    4.22245022956448
H         3.69113077039533    3.11035501928592    4.75306296766909
C         6.07171824823710    7.26857557436833    2.22925012697842
H         6.09903937339420    6.54117504152875    1.42789888972638
C         6.93644119797738    8.36813683591273    2.21479079500705
H         7.62631413989967    8.48238351955440    1.39429490107254
C         6.89846532062028    9.27743538893609    3.24308227084481
H         7.55637537877068   10.13311366038723    3.26212083388495
C         5.98173257820341    9.07745438265453    4.28907428738657
C         5.14875256743535    7.94174887469519    4.21696873223661
C         5.85886546368471    9.95609198039409    5.40500631691558
H         6.50514823470809   10.81964114157992    5.44327450138822
C         4.96151116775377    9.71830997205821    6.39255564370865
H         4.87654924241600   10.38699031311459    7.23540825677323
C         4.20155134502954    7.69305824242585    5.25658591149655
C         4.10559930443693    8.57993502113221    6.34960936334794
C         3.15892233941483    8.28023920136536    7.34286760131646
H         3.05304240248367    8.93015887090671    8.19825118435213
C         2.38254819020299    7.15506383439219    7.20220680740162
H         1.64602327736877    6.89047129808826    7.94376469874965
C         2.55075808585139    6.33885890767441    6.07971275898826
H         1.93996917820307    5.45289648566341    5.96593391027117
H         6.23993200311417    4.28384566836398    3.79556382219733
H         5.88253543765258    3.99813342146634    5.27782967504973

