36
CSD_code = KOQXEV | q = 0 | S = 0 | Stoichiometry = C12H17Br2FN2OZn | MND = 4
Zn       -0.76164164105978    2.43534254098244    1.14094001149424
Br        0.12032300702434    0.35337235575785    0.22239052636978
Br       -2.23236693166976    3.50378426532831   -0.35686018310766
F         3.24456160871109    1.32353131325533    6.31434954366842
N         1.02786434294362    3.55699423463147    1.21917390913398
N         1.33105650026203    2.29225054709370   -2.88839252327396
H         1.58186895749195    2.96406095166523   -3.62142735935026
O        -0.93312649054292    2.26209464873489    2.96497770266245
C         1.40732723427007    2.52505386096550    3.40104697051623
C         0.08970180125590    2.06187657999876    3.71014590854435
C        -0.09162261575731    1.36290880919302    4.93458301005462
H        -1.09146242750298    1.02196078271585    5.15680551501421
C         0.94219271668835    1.11043864496365    5.79016710632702
H         0.79308937004200    0.56667958053508    6.71012842314811
C         2.21964804332217    1.57021701553498    5.46166518060918
C         2.45347184643918    2.26641212193709    4.31186317478674
H         3.45234542848554    2.61292412089684    4.09041583001188
C         1.57407049729060    4.50160618763895    0.26749786195939
H         2.66570410692551    4.57509999866496    0.38730900477739
H         1.14344377363530    5.48430798586098    0.49300233592583
C         1.22528434858311    4.17126820076851   -1.18783026809139
H         1.60715248580965    4.97529440372722   -1.82076296280919
H         0.14103624425438    4.15683009460904   -1.26924477339865
C         1.82370992663819    2.83035116257743   -1.59080493252148
H         2.91095127374230    2.91741568885797   -1.65983460418549
H         1.58642103898982    2.08166710944199   -0.83252754124083
C        -0.13003992522381    2.09435185177651   -2.94455100378667
H        -0.40309885141731    1.68385700482469   -3.91316759807078
H        -0.67519121584560    3.02145290592660   -2.79110480910883
H        -0.42067383646260    1.38750653183805   -2.16872497229149
C         1.99495980362648    1.00434516163612   -3.15319621420538
H         3.07653711143835    1.11943479543558   -3.14409828512614
H         1.68582269071197    0.61151977191835   -4.11886904637844
H         1.70138862988160    0.30156427213821   -2.37144881666755
C         1.74716135996348    3.29723515242081    2.25651723101632
H         2.75612978714346    3.72888934576327    2.29366664767432

