33
CSD_code = KOQYEW | q = 0 | S = 0 | Stoichiometry = C11H15BrCl2N2OZn | MND = 4
Zn        0.53061754009282   13.41034310229731    3.06722300366385
Cl        0.85533327311034   11.45982868610500    2.08481021962774
Cl       -1.14979871656756   13.03827153605163    4.58433382717706
N        -0.52210372985037   14.56131559469089    1.73335061573876
N        -2.56344577989780   12.06067541115483    2.22603406953129
H        -3.53964173553370   12.32737347490852    2.37128822316387
H        -2.02852126974950   12.40759408884898    3.12400191941052
O         1.89424186177480   14.60706204711779    3.39179836712440
Br        4.39395676721994   15.68512403804758    4.36958008064882
C         1.26857220931976   16.21336799395151    1.70198273192136
C         2.11277283623964   15.67397937297403    2.71962766481296
C         3.29600756095970   16.41015446876133    3.00761404124735
C         3.64694154529193   17.56325108753718    2.36285667523703
H         4.56114316494689   18.07310860090561    2.62608389731136
C         2.81011544795408   18.07002901330599    1.36383582589420
H         3.08101272844924   18.97896089688313    0.85100694044272
C         1.65517683790073   17.40723458530691    1.05197481735537
H         1.00424663100680   17.79930867742756    0.28309612148707
C         0.03220793134757   15.63968723757629    1.30038745672229
H        -0.50181567320185   16.21757109988164    0.53519137574232
C        -1.83566561630764   14.22752697711884    1.22243640699486
H        -2.00679439331735   14.74277281764865    0.26747247549871
H        -2.57971594549721   14.59340035194442    1.94147677652893
C        -2.01876773565535   12.72058463115269    1.02498017086620
H        -2.68933310599663   12.53315427511353    0.18263281481645
H        -1.04618776090676   12.26462286598352    0.81797506747456
C        -2.44508736049560   10.58733806101742    2.20569235691037
H        -1.37921212863726   10.35681587317023    2.13197007192982
H        -2.96248453703088   10.19483588179166    1.32633296471245
C        -3.02542506293777   10.01543880989614    3.48522475268972
H        -2.52058060386598   10.44993205649003    4.34336072109762
H        -2.87924952589729    8.94030247988310    3.50680964828315
H        -4.09191565426006   10.21783390504884    3.56315789793604

