72
CSD_code = KORCEZ | q = 0 | S = 0 | Stoichiometry = C20H47ClP3Rh | MND = 4
Rh        0.04062619017713   -0.80913348387248    3.64621083736365
Cl       -2.23433186677514   -0.60207842922261    3.54178571042764
P        -0.00548653542047   -3.03930747879563    3.21397857893994
P         2.22969029374807   -1.33978244604886    3.40038612663913
P        -0.03512841867352    1.34647100919240    4.34390799257592
C        -0.76368815110044   -3.91893559286425    1.69425164609245
C        -0.39664512891077   -4.07720377350757    4.76169166560774
C         1.86754179924901   -3.15618986866013    3.06204147324311
C         3.63492168720311   -1.31247233679829    4.71755910275157
C         2.96997136534944   -0.75330216660926    1.73992487943157
C         1.39584273179441    2.38778232768553    4.87535547229009
C        -0.84817892851233    2.51944594122030    3.18934588040488
C        -1.09058436551095    1.55999421395321    5.83147816509313
C        -0.98546026934851   -2.85035617419098    0.61775587640089
C        -2.15131398846580   -4.45342291415040    2.04916319104539
C         0.10851937407311   -5.04941858412385    1.15194404253098
C        -1.87067079928022   -3.89347227050872    5.13954956323180
C        -0.01457950540081   -5.55272860844736    4.68022084695950
C         0.41633272318389   -3.41090637258262    5.87187349917857
C         4.53815416292782   -2.54328974389191    4.67392010122256
C         4.49351194122156   -0.05698316227986    4.55956462150136
C         2.95058571995808   -1.20016767254886    6.08611971897721
C         4.26900964626907   -1.42479557515657    1.30377696576452
C         3.10205855301868    0.77082210023428    1.75806221241696
C         1.87982748911062   -1.06179580760959    0.71307504832498
H         2.20295914566801   -3.46969015419105    2.07542200808054
H         2.30326088330322   -3.83033317368388    3.79637606744049
H         1.92140081715064    1.89805282350293    5.69242125747951
H         2.08751124069411    2.53345587620916    4.04926706350723
H         1.04058157855635    3.35996418984222    5.21457611020100
H        -1.81481020530779    2.10493068691534    2.90967870254597
H        -0.24165744353315    2.62912112895794    2.29090521013364
H        -0.98463264239446    3.49296482658106    3.65947002475669
H        -0.64111405087104    1.03109503230217    6.67174828202263
H        -2.06639384911722    1.12457327561332    5.62669208465143
H        -1.19890139265321    2.61545675078409    6.08004685136758
H        -1.36718850578177   -1.93563358640485    1.07394800784518
H        -1.72218742529047   -3.19625366453942   -0.10594292987142
H        -0.07689067591388   -2.62321468228318    0.07235320212121
H        -2.65963667567257   -4.77301466322839    1.13904593837223
H        -2.74455128736076   -3.66518391276494    2.50699932068743
H        -2.10381468222098   -5.31176418117600    2.71139802976343
H        -0.43434665161829   -5.57959385796929    0.36973668083466
H         1.02842525691708   -4.67120720479244    0.71060896662599
H         0.36774927065888   -5.76433821556393    1.92850170196888
H        -2.18728873432209   -2.87472519162955    4.91529525388396
H        -1.99982482060281   -4.05802074935750    6.20892741263837
H        -2.52812964307664   -4.58491214350771    4.62551688725354
H         1.02229472044331   -5.67768106574015    4.36979975704916
H        -0.64893673176193   -6.10280949232210    3.99080309895988
H        -0.12588773010354   -6.00700925169458    5.66507547887730
H         0.24786060382116   -2.32691303623062    5.84280308246587
H         0.10707070965454   -3.78220181950798    6.84830383121079
H         1.47619203814268   -3.61738924179514    5.75840398294162
H         5.37267660102558   -2.40326151945496    5.36092702756478
H         4.94307587793101   -2.70581004620894    3.67871036917641
H         4.01134210828805   -3.44281995391995    4.98383285258717
H         3.86510143794579    0.82940857429059    4.54191477931833
H         5.17061163427371    0.02715157147544    5.41050860849533
H         5.10536314463701   -0.08873860055807    3.66405637130164
H         2.04293838519674   -0.59793165029660    6.00430906766576
H         3.61387515253357   -0.72288386908381    6.80606870455633
H         2.68300272709881   -2.17113204572783    6.48712546153235
H         4.18748419958072   -2.50954149480958    1.35328747603594
H         5.11741215070229   -1.11531263388799    1.90739393594831
H         4.48378646876342   -1.15335785637594    0.26983714892785
H         3.93638181821460    1.12263794940039    2.35310964266547
H         2.17787370503809    1.19865421716411    2.14847205403137
H         3.24481380001977    1.13979208811974    0.74234001312861
H         0.90436508365623   -0.75878513819275    1.11532026770183
H         2.05640651049640   -0.51121119779546   -0.21025097089662
H         1.85995035737640   -2.11915682688639    0.46701260599549

