31
CSD_code = KORGED | q = 0 | S = 0 | Stoichiometry = C13H9CrN3O5 | MND = 6
Cr       -0.14984442820919    4.05875706024641    3.12766242192841
O        -2.54094977661081    5.56719116640640    2.07660431247675
O        -1.46906381364920    3.82795638002450    5.83565401503450
O        -1.63318939766102    1.53907203400258    2.41661629458002
O         2.10444839298691    2.25333043904624    4.01550987871385
O         0.88385968101361    3.96783846747495    0.29511238282851
N         1.25419585118265    6.80025418021224    3.55149391912460
N         0.75402637660684   11.09219564632667    1.35393621768967
N        -0.79503523435475    9.51717654858986    4.03964605178300
C         0.99808297288164    8.19873108143928    1.01922214638608
C         0.86867622546787    8.88795260527912    2.37736616792574
C         1.68309366529165    8.12518856237938    3.44833982251493
C         0.76096794558795    5.74405339882811    3.46950546708128
C         1.43149877342615   10.32418542463159    2.30638176548976
C         0.17463083680513   11.71384990141597    0.56135465906790
C        -0.62036964885308    8.92956785395325    2.78253105131530
C        -0.90122462018854   10.01079428510407    5.08674530199489
C        -1.62315707780571    5.01989101119331    2.50066639528355
C        -0.92667149236982    3.97239117413150    4.83734895861863
C        -1.06696269278789    2.49482756322358    2.70345360688020
C         1.28601087088217    2.99224504592622    3.70601534897882
C         0.53289355968184    4.03529501672624    1.38640534900100
H         0.45968008154849    8.75803039615210    0.25733931784423
H         2.04297756704263    8.13497942098106    0.72214160292987
H         0.58918073122702    7.19010699595660    1.05780723998628
H         2.74530878537367    8.12671864098369    3.18052279025280
H         1.56770695508279    8.60710584161145    4.42614077667692
H         1.33014394247253   10.81832945953062    3.27963206202389
H         2.49182978936258   10.29691137556979    2.03297013851153
H        -1.18616824404266    9.51043693752092    2.04628908437210
H        -1.02707657739533    7.91273608515193    2.81398545270565

