109
CSD_code = KOSKUY | q = 0 | S = 0 | Stoichiometry = C58H46O2P2Pt | MND = 4
Pt       29.75306720599976    6.17417518874877    9.60098759239285
P        27.57207828363521    5.86626771644492   10.34742952832900
P        29.92094177130640    3.89787405221916    9.15044423533968
O        31.37073543991545    5.40343947308959    7.24369627845048
O        28.87594000810244    7.87352438101205   11.85236934885370
C        31.72188606826891    6.50297922988601    9.27297963117652
C        32.28150835052368    6.01887208786375    8.08200645908323
C        33.63435953785599    6.13541035158733    7.81228678726962
C        34.46246620946491    6.74142718144018    8.74526527661408
C        33.93998015534699    7.22279837080007    9.92850442544269
C        32.58021263446366    7.10590772136119   10.18332013810299
C        31.80065870718960    5.01303642520786    5.96764109582639
C        26.55174284245305    4.66320100000458    9.41692717861334
C        25.61258455525798    5.16216628344340    8.48904992045049
C        24.95745185523421    4.33785218692093    7.62500253580263
C        25.20851508356116    2.95142485843646    7.62671411447173
C        24.56561746603523    2.08246127486946    6.72283181281744
C        24.81775390459847    0.74021745905875    6.74182265687650
C        25.72561657545808    0.21339852134441    7.67176565436316
C        26.36713004757917    1.03182119229886    8.55816160117987
C        26.13172251677510    2.42484496204749    8.56542899401028
C        26.81341729193787    3.30382624204546    9.45445666960957
C        26.46092419247983    7.30813903356401   10.47599543167734
C        25.69789661187133    7.63672473886007   11.58830533114890
C        24.96408939762795    8.81131548905909   11.60393112163982
C        24.99229128089566    9.67188415120522   10.51988486057710
C        25.76209581240602    9.35781240559076    9.41179539019065
C        26.49455365566417    8.18690630728865    9.39332989839231
C        27.60958242811171    5.13396059731863   12.00842159186285
C        26.47283223097666    4.68337512070939   12.67029004924069
C        26.58297121504048    4.14520816819771   13.93983236633280
C        27.82497424533675    4.03148326994355   14.54187406643649
C        28.96319169517763    4.45843333870352   13.87590782564091
C        28.85504613267486    5.01407461238739   12.61528060847486
C        29.61110452260876    8.19141681627473    9.65921938941565
C        29.14245940208004    8.77963479317888   10.84275243798660
C        28.94530780262864   10.14564051630015   10.94967041513288
C        29.21257788958594   10.95739276402428    9.85720129916362
C        29.67100032466394   10.40566385918198    8.67819996059316
C        29.87086070533498    9.03462423513326    8.58659975403392
C        28.53791059990886    8.37043818996396   13.11881416660991
C        29.10944011617173    2.75869976444436   10.33390924669034
C        29.91395731740142    2.08875277707087   11.28029303620962
C        29.36622108730129    1.37427829035720   12.30254401474803
C        27.96760807629838    1.29133576378034   12.45131249105771
C        27.37773638844308    0.58166160442856   13.51617461540562
H        34.05915709334468    5.75966255661936    6.89321910371365
H        35.51859859803891    6.83421852584735    8.53583280619225
H        34.58751559406564    7.69650714903463   10.65297022238641
H        32.18496851843955    7.50141881389859   11.11184424974461
H        30.92233681130466    4.61642514912791    5.45797051617659
H        32.56834692890559    4.23202120043751    6.01992295194967
H        32.19186666184424    5.86618528038632    5.40302344500570
H        25.40812553477192    6.22271069694115    8.47493387055489
H        24.23909477081165    4.73778523149345    6.92347185805660
H        23.86865761676475    2.50336924221616    6.01198182325614
H        24.32325270319854    0.07895341290929    6.04540938330301
H        25.91854284603302   -0.84961401414336    7.68094505329464
H        27.06736471779281    0.61221879461341    9.26479708255484
H        25.68710872764785    6.99054988583264   12.45341271504625
H        24.37331538969257    9.05915930898855   12.47502828638293
H        24.42461214422977   10.59061405073827   10.54350997217690
H        25.80448141025798   10.03314426437511    8.57022053885314
H        27.12205308982179    7.95261555151222    8.54212690054161
H        25.50818513275565    4.73449680583815   12.18320424211912
H        25.69893721904915    3.79963939529910   14.45596617552527
H        27.90540580767802    3.60211251174122   15.52983571748794
H        29.93199890655077    4.35802864878903   14.34345298741632
H        29.73229892794232    5.37196051066193   12.07769254207116
H        28.58237269027362   10.59239920839081   11.86346014654784
H        29.05968275550556   12.02402616811214    9.93985550119942
H        29.88031674387871   11.04066328735408    7.82875419123658
H        30.24400186905278    8.62050127853479    7.65700350405913
H        28.43851283140516    7.50229154170850   13.77067249056176
H        27.58660511991352    8.91511767338745   13.09953350705669
H        29.32240373555478    9.02770335571900   13.50896877565223
H        30.98822743127601    2.14146310430265   11.18088679048260
H        29.99839899295086    0.86491076986799   13.01603214243594
H        28.02548697140288    0.09709661060846   14.23299844552690
H        25.57290793562644   -0.03644543861418   14.46088060417352
H        24.12255495016281    1.08142598218238   12.80885099032481
H        25.09192070974234    2.33200851173769   10.94836450047820
H        28.71773642612841    5.60664556025993    7.27141949311558
H        27.46471005621662    5.23341895033239    5.15179549829749
H        27.14412485232712    2.93786616219686    4.30670705835904
H        28.01425371974352    1.01945955080670    5.58052058604118
H        29.18867509681521    1.38253075923605    7.71686271432900
H        31.29176900018620    2.05909535225418    7.14721322641854
H        33.61770886597805    1.29702191665634    7.02085549939225
H        35.25256837223581    1.98783170634253    8.73116075739648
H        34.54096181172118    3.45193739378367   10.59105709652572
H        32.20353793815374    4.21770162072132   10.72375745777081
C        26.01963409592866    0.50831283671425   13.64203888361700
C        25.19584793330755    1.14456825520337   12.70226964173634
C        25.73902897995670    1.84303142325538   11.66104638768237
C        27.13935463503071    1.93982419179394   11.50037058545842
C        27.73078673004578    2.68853128201787   10.44335496147775
C        29.04495502872408    3.52128583746679    7.60532411454068
C        28.54680754447681    4.60219677613012    6.88589283370016
C        27.85874336490461    4.39378538067897    5.70585550969330
C        27.67658226192471    3.10391220514301    5.23181001332429
C        28.16837998934465    2.02436762868902    5.94635370091824
C        28.84073658421268    2.22779496959281    7.13813582692931
C        31.57870754723691    3.15735095079038    8.96985414941821
C        31.98908407878740    2.34766448573477    7.91965287475587
C        33.30616950083207    1.92575000381970    7.84336662774405
C        34.22514001797678    2.31289984892333    8.80358988997413
C        33.82609661744182    3.13067093831429    9.84817186466619
C        32.51356142103160    3.55311621953573    9.92649740925251

