37
CSD_code = KOSMAG | q = 1 | S = 0 | Stoichiometry = C17H18NbO(1+) | MND = 13
Nb        7.33102236224259    0.11904216479011   18.38155073880120
O         7.68939016666129    0.90781172794602   16.07988116591207
C         5.21810652122970   -0.17763075289015   19.06275293776298
C         5.22192321720825    0.33230392332931   20.44779902673675
C         6.15374982535803    1.18900215276936   20.88262848745313
C         7.24091884260205    1.66183041677971   20.00471400153634
C         6.87543405718430    2.37316645818343   18.79993945068152
C         5.77833538236718    2.04002118479845   17.98454979796019
C         5.13218313615855    0.78908725430036   17.99225366274775
C         8.64891109189787    1.77769037024178   15.66725076474509
C         8.74982214800903    1.75769618268024   14.31578867080453
C         7.79498342376082    0.80904435977339   13.85775765818786
C         7.18209705998472    0.32074171936949   14.96362677652374
C         8.83728156247255   -1.15192303837905   19.71568114271330
C         7.94343465484639   -2.01610945463544   19.00758626730959
C         8.28893471343920   -1.96788691905580   17.62500536268523
C         9.40164556275514   -1.09968338662894   17.48804525604984
C         9.71966589252983   -0.57739367959700   18.75578220791748
C         8.98079696629560   -1.08119327218195   21.20054287870203
H         4.58455160769954   -1.05465489272897   18.91785885709351
H         4.43477699838747   -0.01328139209595   21.10611244877252
H         6.13925835297185    1.55446211405360   21.90172707242131
H         8.07687570348785    2.11225856256703   20.54290940397165
H         7.39730208470174    3.30251843635008   18.57499837899168
H         5.53049001341432    2.72454540941123   17.17512325043839
H         4.43153882089870    0.58980783032534   17.18163567775093
H         9.16885797747143    2.33529855872611   16.42688027710076
H         9.41317343899342    2.33762279505588   13.70806746140669
H         7.60331885087938    0.53983507999819   12.83981231897705
H         6.40122810603674   -0.40762129811949   15.10083528682596
H         7.30493754925373   -2.76047003715445   19.46953986289212
H         7.93437815993736   -2.65638515659014   16.86575053812501
H         9.97389160550579   -0.94816840220423   16.58029227995589
H        10.58892544290464    0.02434771220967   18.98992372560959
H         9.41000417934734   -0.13067341030511   21.51312588496062
H         9.65184561152607   -1.87501459631542   21.53340890156303
H         8.02050890959408   -1.22524472477586   21.69456211792066

