92
CSD_code = KOSQOA | q = 1 | S = 0 | Stoichiometry = C33H48CuN10(1+) | MND = 4
Cu        5.47544068932632    3.16125252804275    4.07162229121308
N         5.47548701852139    3.16123433021735    6.28969117640994
C         6.48733119308759    4.11756574615164    6.56174928894034
C         7.54385314290405    4.22897304352477    5.64387589151793
C         8.56427321324273    5.14165551699000    5.91127161491629
H         9.37073425668394    5.24835738758730    5.19951931010130
C         8.52939136815247    5.93098346773151    7.04533988319987
H         9.32886249337261    6.63137767836776    7.23285296399372
C         7.46922764829071    5.83523786528715    7.93106527716154
H         7.43504508154196    6.45838323930371    8.81078598529876
C         6.45130137266015    4.92939665529071    7.68604654684582
H         5.62029322826874    4.84328652149546    8.37182953146993
N         7.47117320484389    3.55253880531756    4.43054382250670
C         8.51947725930621    3.02605294523946    3.85583080358359
N         9.59872478008343    2.53527117352267    4.52583027990003
C         9.51427822167003    2.11687702752934    5.90375227556840
H         8.49061788890157    1.84206782385003    6.14840182923223
H         9.84859286777059    2.89805523524468    6.59454746469313
H        10.14980610594053    1.23936263057721    6.03679392769912
C        10.94721534521296    2.65539711660313    4.01773699786493
H        10.94788265190371    3.17624808750092    3.06459115467744
H        11.41383173146163    1.67469939398739    3.89547509715067
H        11.54785956084295    3.23007114212760    4.72912513667277
N         8.56571702747689    2.94454067062167    2.49495437062973
C         7.69805510402014    3.77852446122750    1.70368322352016
H         7.41407492907793    4.65147981792992    2.28696806493762
H         6.79324708217336    3.24170304303490    1.40072300565815
H         8.23490707406481    4.09405651784198    0.80652075865357
C         9.06611739731954    1.77499014382399    1.80768248280840
H         9.48351717979466    1.06787563776090    2.51776693712043
H         9.83308914580624    2.05156199098438    1.08047686087856
H         8.24761653487144    1.28423941162775    1.27134332836728
C         4.14131736090040    3.55931622791860    6.56162313737576
C         3.51664875440973    4.41867720445047    5.64379212005611
C         2.21608709724602    4.84618826168145    5.91120840091721
H         1.72036657442263    5.49094911566879    5.19924157656939
C         1.54990665294980    4.42135406095085    7.04524789454824
H         0.54351194403565    4.76332987036668    7.23256770554200
C         2.16276061489871    3.55088086944018    7.93086018858146
H         1.64022280222001    3.20990077556019    8.81067810332976
C         3.45616826370005    3.12214541938716    7.68584683836505
H         3.94635859530248    2.44586278265390    8.37187738402576
N         4.13875877348553    4.69395825403464    4.43045072362714
C         4.07045191053346    5.86507977917877    3.85578850636689
N         3.95579936187467    7.04507650751285    4.52586542366210
C         4.36048602693501    7.18111652602862    5.90374982305207
H         5.11035060015302    6.43201239859899    6.14827252625339
H         3.51686960720236    7.07997980164004    6.59460239273847
H         4.80264953280040    8.17026451133573    6.03682979698141
C         3.17754707626887    8.15287380803798    4.01782815914552
H         2.72615875366931    7.89306983349897    3.06466045558330
H         3.79356490686807    9.04732020862676    3.89562655958680
H         2.37953956732408    8.38567351820377    4.72922710256806
N         4.11774087114282    5.94600357342506    2.49489531912642
C         3.82961151445996    4.77749847323633    1.70364962256663
H         3.21511737409710    4.09528764224654    2.28664259808768
H         4.74697555460235    4.26206989451415    1.40132820851886
H         3.28853377300381    5.08464310003173    0.80613772388675
C         4.88061201115906    6.96406440760772    1.80770188301547
H         5.28418346757969    7.67912606704170    2.51782445858712
H         4.25777333123160    7.48999247589847    1.08035339426393
H         5.71495037434247    6.50054066692748    1.27154148630034
C         5.79783229878538    1.80678893129183    6.56164435728115
C         5.36586702428013    0.83612607059145    5.64384262650941
C         5.64586723888232   -0.50394280566959    5.91131112214115
H         5.33535672769147   -1.25564014411466    5.19935373595841
C         6.34702737230937   -0.86841904944189    7.04528745830819
H         6.55422033620121   -1.91095150505002    7.23253456024692
C         6.79467446333327    0.09759519353216    7.93076502129810
H         7.35136471114099   -0.18440873419615    8.81051979866061
C         6.51914784290518    1.43206855176545    7.68579948277571
H         6.85979878050295    2.19474502901492    8.37178437562657
N         4.81641673677072    1.23724881231776    4.43047939253623
C         3.83632546804504    0.59256031028563    3.85583854039508
N         2.87174189812563   -0.09670387682650    4.52592671267256
C         2.55159454189763    0.18574269251875    5.90382222005475
H         2.82545362566046    1.20967213822545    6.14838847082101
H         3.06092216226232   -0.49431370865293    6.59469309258741
H         1.47388058506948    0.07415863028070    6.03689742199818
C         2.30145874048212   -1.32457892478835    4.01790298141123
H         2.75224139592533   -1.58566756413240    3.06480566797903
H         1.21885114483854   -1.23827230679405    3.89558006583255
H         2.49873461791127   -2.13204103741514    4.72936812851602
N         3.74266383505364    0.59308409532944    2.49495600606986
C         4.89877325269296    0.92778409683293    1.70384485518550
H         5.79677681215108    0.73667437827994    2.28697654641267
H         4.88644688725531    1.98000270271421    1.40157636927820
H         4.90335556537665    0.30561514682018    0.80631224432572
C         2.47962528243155    0.74461988409043    1.80766052816936
H         1.65849019680788    0.73639849540226    2.51768599116017
H         2.33581299045739   -0.05771145517424    1.08023926402267
H         2.46381261736669    1.69899286091704    1.27158586535228

