123
CSD_code = KOSROB | q = 0 | S = 0 | Stoichiometry = C63H53BN2OP2Pd | MND = 4
Pd        3.61675409791093    1.92930585476496    5.23382660970706
P         4.96287873614619    2.43682802455979    3.48224872402269
P         2.24413577295886    1.46271609686558    6.96769520241478
O         3.16418358545190   -0.28384441148277    3.90559019473190
N         4.58925816990207    0.15616918145513    5.52216115284551
N         2.07675692071044    4.56084098699856    4.73360170899372
C         6.19256141148007    3.73187221041529    3.81549038831023
C         5.96403318037281    4.59575313103978    4.88185257029299
C         6.85022315006403    5.62273811703510    5.14945248862367
C         7.97272960328269    5.78852835470958    4.35496158935477
C         8.20815863806793    4.92782519085571    3.29411595221748
C         7.32279866771357    3.90100786140957    3.02093813734749
C         3.95549462630100    3.08778251261441    2.12024058616174
C         4.35984422796670    4.11985871528321    1.28259547903730
C         3.48640804722539    4.60208553352827    0.32286615090092
C         2.22197462681564    4.05418411731655    0.19068008171792
C         1.82206348193147    3.01635437508606    1.01788330250087
C         2.68025825062388    2.53952890379847    1.98942766339886
C         5.94624073157670    1.09438569223453    2.75895494288433
C         5.56014942578284    0.45159532394269    1.58908958241474
C         6.28640144885059   -0.63286816844357    1.12926229854044
C         7.38891415983877   -1.08458558797822    1.83539752301423
C         7.77027041014366   -0.45082540605668    3.00838533587254
C         7.05009774534439    0.63237383859188    3.47318787678246
C         2.23456394374873   -0.25534146319491    7.56116383730687
C         3.11404724023800   -0.62562300877548    8.57592423628528
C         3.20645411773308   -1.94934211790047    8.96290565028151
C         2.43904729703396   -2.91355890176356    8.32980465331322
C         1.57408062459879   -2.55064409921349    7.30976994484099
C         1.47078861632449   -1.22716028327454    6.92224624143174
C         2.47638296706631    2.43072404803371    8.48008284434420
C         3.39920616076779    3.47017759392476    8.45845946679480
C         3.59023265456687    4.25361485751924    9.58226904709011
C         2.86068300941750    3.99762883237284   10.73147642061070
C         1.95144727905952    2.95097522422191   10.76280573915305
C         1.75874651438068    2.16395804422583    9.64264890634154
C         0.55142337610105    1.78172905318820    6.39220860848687
C         0.29894856637564    1.39916291529207    5.07331673567532
C        -0.94405970379993    1.62898625077133    4.51581222658075
C        -1.92705168313944    2.26874826200684    5.25708233686674
C        -1.66647933055284    2.67357162803495    6.55447659718096
C        -0.43121331875277    2.42754701822665    7.12948611789761
C         4.09999509330231   -0.68780448776709    4.62130999858770
C         4.66849013449654   -2.06946781391367    4.38704746378120
C         5.51945198776380   -0.00734696220545    6.52182634988800
C         6.08883375190670    1.17329045123829    7.02997683760543
C         6.99376701232707    1.14333475826297    8.06863238487518
C         7.35705928895379   -0.06670171153550    8.63981366789614
C         6.79031567485549   -1.23592043460785    8.16294300052816
C         5.88030603654904   -1.21810444395810    7.12250238618485
C         2.66011909364990    3.58772821072556    4.93832021696637
C         2.57394272853777    6.97370846359236    4.62414245637696
C         2.53786588024950    8.10909820778324    5.42731330968058
C         3.56764086283348    9.03486148005680    5.41675612358979
C         4.66680435401800    8.84516596208262    4.59672567473898
C         4.72334664857887    7.72402722341357    3.78594143158697
C         3.68967451045926    6.80564946266696    3.80560104827966
C         0.59219450649570    5.84048581558610    3.18739936586839
C         0.70464057582527    6.84709077095284    2.23405392977035
C        -0.00511822827032    6.80219537818526    1.04624995718273
C        -0.85542642732620    5.74253229681756    0.78281734254250
C        -0.98165422155831    4.72789634628428    1.71623516937387
C        -0.26197717529648    4.77937921115216    2.89608776494394
C         0.39387590416317    5.94472267167804    5.88366449598129
C        -0.94785452366172    6.29917292624124    5.78616477708634
C        -1.77289812502715    6.32367177643003    6.89749783022179
C        -1.27388900104431    5.98973051984097    8.14486230450110
C         0.05961144835126    5.63940893363260    8.26871558586500
C         0.87356429495849    5.62088631885956    7.15099163625995
B         1.38284708299449    5.87470381976026    4.59885585416423
H         5.07234636806032    4.46768187710812    5.49063143488707
H         6.66024780709964    6.29821066499696    5.96967445958753
H         8.66541475363450    6.59105837511539    4.56018837304246
H         9.08357363732468    5.05964214264018    2.67488486254883
H         7.50642794204265    3.22562538370298    2.19577072193283
H         5.34375951564354    4.55500213925649    1.39091451480549
H         3.79246245583753    5.41664099679098   -0.31662454077045
H         1.54088291056996    4.44453259742910   -0.54968410675435
H         0.83528794421960    2.59332113410690    0.91203856560584
H         2.38131861396801    1.73056458678915    2.65313947333584
H         4.69166032201161    0.79933965169678    1.04753289084371
H         5.98735636070199   -1.13062411931258    0.21845212139827
H         7.94981003249625   -1.93447734096509    1.47542949061564
H         8.62611063067790   -0.80629319495018    3.56394829144661
H         7.33757078840799    1.12644850253610    4.39351542979484
H         3.72629938678201    0.12535137401292    9.05806744257587
H         3.88800568449684   -2.22926168351862    9.75249950457398
H         2.51832278503121   -3.94863089765947    8.62821550163727
H         0.97988884827253   -3.30258527116948    6.81126495559268
H         0.79995289121707   -0.94615747595351    6.12260110294852
H         3.96456566044524    3.65553920716958    7.54721395187415
H         4.30146397590553    5.06593455909968    9.56203516024767
H         3.00266746219614    4.61193436323247   11.60824182681539
H         1.39023022787164    2.75014116167603   11.66371390184583
H         1.06218883862109    1.33639491052734    9.66653775360457
H         1.09004489507380    0.92321762718602    4.49237269449498
H        -1.14357391462337    1.32606603893691    3.49829285279542
H        -2.89098430069907    2.46929780049656    4.81391019515743
H        -2.42207916295501    3.19530721651732    7.12164506908764
H        -0.23102219950446    2.76164800712571    8.13629916868327
H         5.74488100947915   -2.08529784436902    4.53968250353925
H         4.43946483850119   -2.35723882024872    3.36337132785607
H         4.19140833043161   -2.78362832023502    5.05715714273292
H         5.80394990948661    2.13074718442027    6.57602973157566
H         7.41750890657099    2.06650055439879    8.43787872269298
H         8.06512741935425   -0.09562200696119    9.45406816338969
H         7.05284623656515   -2.18264680792241    8.61357293721122
H         5.42668058652055   -2.14280416809496    6.80822886642104
H         1.68435043720451    8.27022887657805    6.07174314871319
H         3.51377203326870    9.91045264956324    6.05032077666069
H         5.47195270275948    9.56748485194355    4.58584839829471
H         5.57556532933295    7.56692385351151    3.13657412341979
H         3.74329906139923    5.93431086398179    3.16372244859145
H         1.35888906775238    7.68630815513844    2.42705918373762
H         0.10040282571760    7.60097047660071    0.32361710813962
H        -1.41868933818551    5.70967981785364   -0.14041356169661
H        -1.64877523254403    3.89711120742073    1.52268432127927
H        -0.36837419827195    3.98235621892158    3.61992128596895
H        -1.35364767151648    6.56154744367144    4.81890952164331
H        -2.81257563675354    6.60486587858286    6.79207144798770
H        -1.91750516534404    6.00671391728622    9.01436104638781
H         0.46705894824255    5.38109887425636    9.23884425784056
H         1.91504182256914    5.34810735562297    7.26593051646385

