35
CSD_code = KOTFAA | q = 0 | S = 0 | Stoichiometry = C17H11AuBrN5 | MND = 5
Au        3.74431274629987   -0.15311577096899   -1.95431516460630
Br        5.07161143275605   -0.53915202927357   -3.91485355045562
N         2.34310621824927   -0.05543899644159   -0.37044253274608
N         4.46461424309147    1.64741486003262   -0.50654955671676
N         7.17352507230532    2.92403152209267   -2.36598703933933
N         5.06517426493636   -2.44326807683803   -0.37032965591325
N         2.19740763718863    2.20665927662767   -3.18437057363819
C         1.47957353977498   -1.03948556883688   -0.14732399605639
C         0.60920740889687   -1.02758440956917    0.92438541308005
C         0.65271906397291    0.04801334164855    1.80094132630818
C         1.55513523827171    1.06725879815049    1.56386693528181
C         2.39603623704647    0.99580869726170    0.45458246406291
C         3.37484442637078    2.04721691780388    0.15139253426256
C         3.16629447011849    3.37818557833384    0.49320734801476
C         4.11833486323527    4.31417164327379    0.11210949197155
C         5.24848325274443    3.89312362198932   -0.55892219241952
C         5.39598857373203    2.53361053894762   -0.84676097071777
C         6.58108659664270    2.04374329496739   -1.56036623417255
C         7.04592875902702    0.74041660193512   -1.39875348737060
C         8.13147058100310    0.32941069843347   -2.15449674652051
C         8.71552998293756    1.23112315715205   -3.02768199083463
C         8.20483632471370    2.52229798591050   -3.07947115876153
C         4.61092143964771   -1.60262225277501   -1.00264188967826
C         2.78770410168734    1.29683351941855   -2.81630481842059
H         1.48976337349117   -1.85911890952573   -0.85070201340971
H        -0.07891676853457   -1.84414843730650    1.06796307778409
H        -0.00273387652417    0.08673005588513    2.65743489452715
H         1.63128624781241    1.90430408544828    2.23867182368769
H         2.26230473965382    3.68393298091263    0.99429076927981
H         3.96729034757147    5.35986427786065    0.33381213320323
H         6.01627376474074    4.57463969370846   -0.88560509682057
H         6.57454887030573    0.07334128193322   -0.69344296164370
H         8.50076246590526   -0.68116580585734   -2.06895962323023
H         9.54682959657020    0.94443156526481   -3.65129779054931
H         8.63774476435449    3.27183626240149   -3.72877916743781

