70
CSD_code = KOTLAI | q = 0 | S = 0 | Stoichiometry = C36H30ClCuP2 | MND = 3
Cu       11.68589368653147    3.55643490951085   11.10299323313116
Cl       12.13141231135582    1.44992207029040   10.77210439199772
P        13.23598546148662    5.14005055646264   10.79303771019915
P         9.74785809087976    4.21153741946094   12.03005953270255
C        12.56353713122119    6.76582658311034   10.32262316707858
C        11.61027865301943    6.75687694663066    9.30699244062933
H        11.32222713512529    5.80963635564630    8.86694292529147
C        11.04429426777151    7.93884432657053    8.87269780920738
H        10.30930626769987    7.92857939052106    8.08166205634666
C        11.41759181192444    9.13741552920782    9.46023675473205
H        10.97601623407015   10.06347539541801    9.12321465722605
C        12.35183470334087    9.14881040402555   10.48236300886304
H        12.63841866325296   10.08409280058346   10.94147578079981
C        12.92632151241074    7.96765531085704   10.91773695082575
H        13.65609376140602    7.97741606202089   11.71548522140082
C        14.52988499335208    4.87360493458473    9.54332024669257
C        15.19195919956796    5.91254908390251    8.89570776477826
H        14.93707494729334    6.93951574028911    9.12026274429117
C        16.17279106704182    5.62093862739798    7.96576761901834
H        16.69013516743360    6.42485650932988    7.46199357150519
C        16.49268477829534    4.30275630011942    7.67812748860553
H        17.25955339844299    4.08369635908254    6.94954390811812
C        15.82707335645972    3.26821038793738    8.31547405168019
H        16.06988683886787    2.24201166900047    8.08367467646462
C        14.84240879805581    3.54990557142522    9.24513204394018
H        14.30056044531707    2.75124637614179    9.73649540947616
C        14.16928852986037    5.50763381392112   12.31025658749845
C        13.41429243209964    5.61451432784698   13.47672765791201
H        12.33851362186358    5.49745803208447   13.41668490562272
C        14.02986670507721    5.84973641643022   14.68971158559929
H        13.43687305854000    5.92867825291898   15.58943476172821
C        15.41020062270462    5.96972083482394   14.74755162114788
H        15.89687500583837    6.14827259310339   15.69493178170039
C        16.16648058271257    5.84913967990755   13.59331066195199
H        17.24229979701941    5.93399625176539   13.64258164213998
C        15.55339997014483    5.61436425855764   12.37450693466704
H        16.14661592131472    5.51107235400430   11.47692375869532
C         9.12479264004861    5.87373284784320   11.64347225707567
C         8.21203184091527    6.05376973614620   10.60716878585108
H         7.80184181721511    5.18954991765018   10.10225362702456
C         7.82661201910634    7.32772726334016   10.23463689429665
H         7.10763883130174    7.45977611248823    9.43909525506728
C         8.35986827271239    8.43274101011001   10.87769582101275
H         8.05319820372679    9.42699210634881   10.58888064844341
C         9.29531939836933    8.26125275351343   11.88517359161959
H         9.72435971070730    9.12137446768572   12.37793671504206
C         9.68606964199441    6.99038150741589   12.25941277798096
H        10.42364395381011    6.86005079780572   13.03987382951073
C         8.29130641590372    3.13456690289606   11.82675869333552
C         7.01390373042259    3.51643921340249   12.22717710886124
H         6.84628099170836    4.50198315372225   12.63900612422537
C         5.96137752618814    2.63244123754851   12.08655936054418
H         4.96819941151904    2.92769167841684   12.39327252881345
C         6.17688135803965    1.36867717972455   11.55722325090985
H         5.34876492621752    0.68312603855746   11.45133836803067
C         7.44880477667924    0.98514606145733   11.16706276680079
H         7.61792883099857    0.00059314514740   10.75744032783511
C         8.50851584386680    1.86531149783264   11.30069274295164
H         9.50750838054513    1.57425855029710   11.00042513886119
C         9.89010565609021    4.19335670183285   13.84760159218544
C         9.11386906045240    4.97378930765628   14.69726046665589
H         8.39321465043589    5.66925498071461   14.29063436146955
C         9.27712214778555    4.86617085938402   16.06644709663240
H         8.67631113932551    5.47532735207638   16.72633895421668
C        10.20413000440304    3.98096022109693   16.59357054057098
H        10.32611513803336    3.90388822870567   17.66403583819973
C        10.97237792605246    3.19508857829820   15.74987262029997
H        11.69396204588175    2.50337632979042   16.15834078004703
C        10.81653239830593    3.30038246811086   14.38036816257544
H        11.41352238249696    2.69526935823629   13.70852590921913

