32
CSD_code = KOTVOE | q = 0 | S = 0 | Stoichiometry = C16H12CrO3 | MND = 9
Cr       15.65691343366666    2.71188931761848    0.04784035452537
O        18.43545871030817    2.51918983404110   -0.97421612338538
O        16.31324175978877    5.17445111100170   -1.47385555845344
O        14.88496581642067    1.62373955460623   -2.68773690388786
C        17.32455013532830    2.51322195358612   -0.63083921816787
C        15.99070377911506    4.19518180861934   -0.93688942632166
C        14.70834464712103    1.75161615968800   -1.36592486899125
C        15.96669138594187    2.23807458273792   -3.34211432555540
C        13.52676464584617    0.98953381620942   -0.97215506159090
C        12.71363904834714    0.26874147709667   -1.85753991830332
C        11.61438000587877   -0.42598192402902   -1.39319072764564
C        11.29219587870088   -0.42735745159892   -0.04401702969325
C        12.08069562593093    0.27853737509583    0.85404553772083
C        13.17825715226114    0.97554324449986    0.39391841350329
C        14.10963277776388    1.77484555007875    1.20470544078601
C        13.88825239937724    3.15391463763890    1.36030573950636
C        14.89859966156850    3.95404709168584    1.90106125484451
C        16.11028366076787    3.38792513565165    2.30911802963046
C        16.30638413730788    2.00580450261004    2.19223630682126
C        15.30433131763010    1.19010827562416    1.66408708705695
H        16.91729560435199    1.86353194690304   -2.95652426599849
H        15.93534939266300    3.32239887156200   -3.21907045849159
H        15.86539005351451    1.97986155435771   -4.39609697360346
H        12.95869225914766    0.26732719961224   -2.90758194362528
H        10.99642789596123   -0.97576735882297   -2.08824401713332
H        10.43077621280936   -0.97359336799831    0.30965344814583
H        11.83827344025825    0.28552565044026    1.90810610463148
H        12.92612066548332    3.57753051353287    1.09619156928104
H        14.72221520188484    5.01177087253677    2.05837930508420
H        16.87554738192203    4.00764404618558    2.75752738634201
H        17.21765186918966    1.56168872828278    2.57587848511039
H        15.42247404374315    0.11295529094589    1.63244235785807

