39
CSD_code = KOTVIY | q = 0 | S = 0 | Stoichiometry = C12H21Cl2N3Ti | MND = 5
Ti        2.35722519205891    0.37257688380399    0.25863384664658
Cl        0.29809873852712    0.31094964906210    1.05986729496091
Cl        2.59000661142963   -1.83198462090483    0.18366927862133
N         3.49963986439081    0.86153179168643    1.43617572039234
N         3.57458878043256    0.51994413781533   -1.57682609134210
N         1.95595489369929    2.41911438373002   -0.33833593530557
C         3.87805946008382    0.63281368694150    2.69275450566993
C         3.12537558523533   -0.24265186340652    3.51497734448652
C         3.50806434339005   -0.49027672432018    4.81187858504405
C         4.63736853619878    0.11786037572725    5.34741179288145
C         5.38507488273974    0.97955090592389    4.56090409168058
C         5.02024132953708    1.23838659965209    3.25721473187590
C         4.92393660033685    0.13374957407381   -1.14850928623245
C         3.12333068426029   -0.41870632844336   -2.60682547869491
C         0.79305592770637    2.53895998625401   -1.21705590791245
C         1.71886883750685    3.23783562291835    0.85426606705137
C         3.58109177694922    1.89165376388318   -2.10350735305490
C         3.17869679394291    2.87290491027548   -1.00204585083322
H         5.60736198923889    1.91002255095109    2.64233851341129
H         2.24135785500220   -0.70926886459992    3.08242727259167
H         2.92246180013516   -1.16360486056121    5.42300385784640
H         2.87602063042907    1.96762034487326   -2.93745488862164
H         3.96722473107462    2.90416572020951   -0.24244944426017
H         3.04887822754982    3.88266523371153   -1.42767477694650
H         2.09005403555442   -0.20465206638564   -2.89472977101222
H         3.16356238074867   -1.43440683612555   -2.20863702268991
H         5.28647375759369    0.83671109127583   -0.39715869137082
H         5.61368631398302    0.11285157271907   -2.00517554449231
H         6.26528878014830    1.45546778720876    4.97200471764233
H         4.92925958125869   -0.07976514055892    6.36803257218464
H         3.76102557798926   -0.35963544021408   -3.50084863409456
H         4.57361644143768    2.15981078500063   -2.49335248542067
H         0.82452408879772    2.87732423229616    1.36419875388901
H         2.56261599636909    3.13291383842530    1.53909076073634
H         1.58684943243145    4.29433843770983    0.58180315779315
H         0.87681922464589    1.87652397406932   -2.08061429127966
H         0.67420437887997    3.57290805521241   -1.57402659866087
H        -0.09989980420571    2.25247191506690   -0.65884921626139
H         4.88313574251415   -0.85587506496036   -0.68837559691747

