122
CSD_code = KOVJOW | q = 0 | S = 0 | Stoichiometry = C43H70N6O2Zr | MND = 6
Zr        5.92900042735112   10.03373047687373    3.70715576826943
O         4.34312487397672    9.67904119400266    4.73199589143875
O         7.37058427945948    9.06568706232494    4.60439184114738
N         5.64557375906536    8.66637281158142    2.05727788728688
N         6.27860287614674   11.98082285904496    4.29354749572515
N         3.91395447097777    9.07308205949800    0.38167734024909
N         4.72961277269296   10.77192886090394    1.72522679107541
C         4.73493034627070    9.31779679282867    1.33210189449578
N         3.11224683418992   13.32157066060368    3.23384139356304
N         7.82354799118847   10.86173482427822    2.33294001304963
C         6.60053726623967   11.22480004561794    0.15921858092003
H         6.80401874920288   11.71246813509288   -0.79831861719699
H         6.71576299642948   10.15062420885943    0.01432092693028
C        10.19488700868155   10.13814423180447    0.02322784432853
H         9.36277323320593   10.01963928819667   -0.65640897094712
C         7.56905103107790   12.58667092018771    4.09926711984178
H         8.03753941220723   12.89052964938800    5.06420974256477
H         7.51995795133785   13.52155624831656    3.49503198171129
C         3.67427484036398    7.87980912748226   -0.37216113406997
H         3.62896273916524    6.96849982807564    0.24794258115001
C         5.14899809077818   11.51893755551030    0.53206820199856
H         5.05268894742455   12.59233855035593    0.70918490538606
H         4.49795066959756   11.24024172589223   -0.31071465587422
C         7.00747110751708    6.67945775871472    2.54704656111813
H         7.22656177972889    7.15755161173713    3.50673706524152
H         7.78857669147522    6.95769286673687    1.83576723315094
C         0.95126166661641   12.73333802200199    5.03209227725002
H         1.94083276346865   12.45390839159855    5.35984944073363
C         0.83771950695561   13.69400465339672    4.03474791845056
C         4.44438922086703   13.89280702397047    3.19243330942138
H         4.46521705299663   14.82948286691413    2.60282337750106
H         5.10000040292913   13.15161328791817    2.72756698294816
C         3.32450040184698   11.08393726922633    2.10550108808204
H         3.20287735420226   10.71697776963638    3.12941291504121
H         2.68262875634506   10.50714663827180    1.42352243633370
C         5.00775773786102   14.11413671559250    4.59275593026048
H         4.27375142792902   14.57619139778257    5.25394814851363
H         5.87117816944840   14.77970716235201    4.53458913683639
C         8.50983971223303   11.58959885800709    3.40929059144029
H         9.40372902557810   12.11449365426594    3.03005927805087
H         8.81423892006881   10.84591903890276    4.15085367079435
C         5.43636366248785   12.74489315369671    5.17831809451519
H         5.93388982173716   12.94509269597199    6.15343817487548
H         4.52717981025099   12.15962691180028    5.35624386331157
C         4.54442377019003    6.70446626886732    2.98878809048698
H         3.57912729302363    7.05712780710093    2.61402208102637
H         4.72066512161438    7.16445534688896    3.96777378466698
C         9.99343554606564    9.97717703023117    1.39066873527054
C         2.78896999422860   12.52057848241750    2.06605940198183
H         3.06024885330065   13.03425343433617    1.12868563122313
H         1.69932856582141   12.41392224613653    2.06181131434276
C         4.74676327092472    7.68945982316490   -1.45647483816046
H         4.77594324205140    8.59402270295849   -2.06888957290113
H         5.72921673333401    7.57565266313465   -0.98968011826343
C         2.30808707539076    8.04047903802746   -1.05351401997214
H         2.32849688116135    8.94935962104013   -1.65720253476146
H         1.54196125884310    8.16850941332178   -0.28629522059257
C         5.65545377332932    7.20862963065009    2.05606630299072
H         5.48762624503734    6.80985159807200    1.04523765497179
C         2.08660234042689   14.32267963624404    3.47898796910588
H         1.84735638189762   14.90081007212154    2.56686092996752
H         2.47185176696487   15.02989511486638    4.21938527953885
C         3.36486348097760    9.06337202181023    5.49320250059813
H         3.65501489976846    8.01089944244893    5.72090841759957
C        11.45027661053775   10.43229713675322   -0.48035683747718
H        11.58744984908397   10.55507551210537   -1.54480669589498
C        11.09008990404495   10.09223458617301    2.23860771012792
H        10.95934543947928    9.93795776273958    3.29962572095134
C         8.61780605873147    9.67883586806088    1.93960350663590
H         8.04227091936207    9.13026055030596    1.19077719524820
H         8.70210154638820    9.05397836530298    2.83353055999531
C         7.54383032445174    8.86642396018431    5.96506094526448
H         8.62821165294209    8.70849988862867    6.16475734349692
C         7.60365752981850   11.75368368141095    1.18860100002752
H         8.56530328992318   11.95987059341265    0.68926323767302
H         7.22596362225912   12.70434907719258    1.57111104476014
C         4.53602938770215    5.18502268585523    3.10986889847715
H         3.73847459002494    4.87083346224830    3.78739316228604
H         4.33442579358645    4.74162581368509    2.13067977260584
C         6.99416485757528    5.15752706695492    2.68443223815575
H         6.84168171315040    4.70687605000902    1.69935165784505
H         7.96355708962019    4.81705934255818    3.05622379490135
C         4.43304120705447    6.48007247067462   -2.32986688335637
H         4.43679567829081    5.57705903185004   -1.71345072076946
H         5.20529351769591    6.36472296076964   -3.09485835873408
C         3.16124777036815    9.77423160524220    6.84600980583639
H         4.07286470131864    9.73304890235095    7.43830360974354
H         2.35907646325792    9.29538737525220    7.40332202180279
H         2.90254224117657   10.81743818599539    6.67831714597705
C        12.34610261848995   10.38611784285763    1.73803664454454
H        13.18658607379314   10.47223807846683    2.41102106297041
C        12.52861794784111   10.56463906719172    0.37709200115046
H        13.50838486822173   10.79502773638491   -0.01404848569883
C        -0.17576617633767   12.14691880811364    5.57591374649871
H        -0.07608310397532   11.39972822568428    6.34998630457761
C         1.98663031499218    6.83428646138416   -1.92822003799969
H         1.92614539798886    5.93959404021989   -1.30294348273008
H         1.01454061168420    6.97180760347108   -2.40765951522644
C         6.79308659188688    7.61024291445807    6.44272752634685
H         5.73665943226181    7.72544491819205    6.20216566095409
H         6.90853689386147    7.47254535558387    7.51607545077180
H         7.18191965647551    6.72901345347383    5.93542968790835
C        -0.42495744404990   14.05889101915406    3.59123346614594
H        -0.52641784013522   14.80445442801441    2.81445600921359
C         3.06579943838466    6.63590097689319   -2.98824508189213
H         3.08260745721565    7.50278589514419   -3.65299580904660
H         2.83988342266728    5.75388079113791   -3.59244234743517
C         2.01588853290562    8.99779936085377    4.74822312018712
H         1.60006197409519    9.99597698387499    4.62847066424003
H         1.30968457093004    8.38686673941602    5.30671526792788
H         2.15930173075225    8.55833241662843    3.76307380456139
C        -1.43406878431101   12.51922192972098    5.13039423576531
H        -2.31686511759340   12.06398678213600    5.55489552320023
C        -1.55601056930729   13.47613031849140    4.13838858915782
H        -2.53479005904116   13.76861545949211    3.78636373695600
C         7.06966703410661   10.08702564859300    6.77182774154872
H         7.70271002746649   10.94679393311793    6.55591922309778
H         7.10262701350089    9.88506891714973    7.84205812618022
H         6.04772914411970   10.31391441313592    6.45372188350183
C         5.88445207961141    4.69085870029977    3.61978759402099
H         6.05857861403403    5.08929005836067    4.62108852580771
H         5.88567283568256    3.60012252814557    3.68596418116378

