61
CSD_code = KOVKUB | q = -1 | S = 0 | Stoichiometry = C30H15Cl8O6PRe(1-) | MND = 6
Re        1.52254319019048    3.68053907697400    3.91962955611669
O         2.02870945110855    2.10290019423485    4.12273796453101
O         0.31743311412992    3.67736370019238    2.27578029701075
O         2.78989747505052    4.43261810710254    2.49608727008883
O         2.39549409907301    4.76116014629205    5.42427223716220
O        -0.03427065979417    3.88111926113314    5.22957729215412
O         0.83462776784167    6.01252334519787    3.58564617452239
C         0.84768784832312    4.25399201241882    1.22905940807481
C         2.20583839516158    4.67150600337150    1.34997046538923
C         2.79644720136675    5.39134705719229    0.31689754395774
Cl        4.40293963096582    5.97558942265684    0.51473721452557
C         2.08238718961437    5.66758295631731   -0.84769029083600
Cl        2.83074392537338    6.54669964912736   -2.11875206764017
C         0.76405088624981    5.25801719531807   -0.96968691430878
Cl       -0.12121386541801    5.63278040079070   -2.39148423120853
C         0.14292255422028    4.56758888194620    0.07024931278069
Cl       -1.51220146906872    4.12832480457745   -0.05122069243456
C         0.22924702031716    4.64197181478110    6.25883755930878
C        -0.71660626649194    5.04343138461530    7.19853202227658
Cl       -2.31699360911088    4.42829062314610    7.09425811808549
C        -0.38159775918304    5.96770012442832    8.18718946405632
Cl       -1.56253655204331    6.45858251797699    9.33239615222650
C         0.88800202857549    6.52187772101452    8.22535424059678
Cl        1.26431158462913    7.72802617741534    9.38795861826983
C         1.85343786975968    6.12366018804576    7.30216265327166
Cl        3.41178208913890    6.85304666120243    7.30312000360801
C         1.55497807039554    5.15914820804272    6.34595384406950
P         1.01873845851882    7.48171224809319    3.49756187456693
C         0.36366869046373    8.01627707897439    1.88020372653616
C        -0.98573841031812    7.79551582595073    1.63360496924821
C        -1.50609478170735    8.01039740435204    0.37108062494178
C        -0.68012182975377    8.44908099617986   -0.65115443995417
C         0.66616744837289    8.66300424055589   -0.41001490983809
C         1.19324392051875    8.43543383431128    0.84974958282421
C         0.10964890529367    8.24244645005817    4.88282405759082
C        -1.10330308288712    7.65067463021132    5.21884350671272
C        -1.82150486630533    8.10380624492141    6.30953429055077
C        -1.31758550005477    9.13431139266363    7.08642117944299
C        -0.09662222424091    9.70647671347970    6.77092985284800
C         0.61758528735928    9.26625838065463    5.67017294242395
C         2.73713877146856    8.05630974857559    3.58146448879840
C         3.75465398918625    7.15336765643865    3.85348422431785
C         5.06575318465485    7.59603530609529    3.91104379560338
C         5.35884752784319    8.93192040205015    3.69994458602702
C         4.34194707326077    9.83454567376091    3.42525947971836
C         3.03202759836340    9.39987615981111    3.36378315496929
H        -1.62159256882866    7.44288881018379    2.43283139898791
H        -2.55241421447275    7.82296430769480    0.18003890480978
H        -1.08260755792349    8.60842763189424   -1.64032454819351
H         1.31434123320532    8.98752280406460   -1.21029766010861
H         2.25001849799269    8.57647261407340    1.02590919512193
H        -1.46188549942526    6.81150148984022    4.64000401500525
H        -2.76105024972718    7.63819808436691    6.56722346935056
H        -1.86556022638528    9.47453082631237    7.95239566774631
H         0.30973934147924   10.49042094398754    7.39321460011783
H         1.57724273891809    9.70458462097016    5.43912835538264
H         3.52165934066414    6.11105817835291    4.01344706791140
H         5.85653717782080    6.89170129444470    4.11964950027055
H         6.38248298202654    9.27555617808685    3.74435331724464
H         4.57272469076347   10.87698627578539    3.25520751687073
H         2.23265294349832   10.09354791727970    3.13590899651890

