77
CSD_code = KOVKAJ | q = 0 | S = 0 | Stoichiometry = C29H41N5OZr | MND = 7
Zr        3.90281408430617   15.43966936007441    8.54803430224202
C         5.85677369313372   15.64844341465938    9.63527982040631
N         2.11597178344799   16.84618851199359    7.39946325960752
C         4.90769949175266   16.68950631407013    6.92627553255170
C         4.08364118671098   17.27571139168790    5.94959239750998
C         4.71734171608376   13.15518336084758    6.11875095310458
C         0.51561643330172   14.17640845564690    8.08871230368641
H         0.01098286993176   14.54187513627576    8.99116719438836
H         0.04297114826461   13.22686996643480    7.78758321605068
C         6.53819996899018   16.84669563433170    9.89172443255030
H         6.16844429584434   17.77235811753191    9.45374004906276
C         0.67323167895826   16.59773417894778    7.35359251130406
H         0.19637282007207   17.30603130089300    6.65204950910218
H         0.25066776883255   16.78439454728733    8.34374911523192
C         6.36455304142094   14.51685406855641   10.29729742238122
C         8.17023141246428   15.75258558604190   11.27893994988957
H         9.05918210055040   15.79012231713126   11.89252802332369
C         6.28185195082985   16.93104049778539    6.74147424585706
H         6.99919440629586   16.50805320955091    7.43951679205383
C         5.93599655925204   18.23719315562079    4.75357387268188
H         6.32172137016922   18.82315023423934    3.93138161668552
C         1.91193512770052   12.88876521352575    9.46211887948377
H         1.34697285543140   12.00799795230101    9.10806407065565
H         1.39093739039022   13.29360545894002   10.33826645745197
N         4.12810381085974   13.55316041224179   10.29276856497415
N         3.86584243364200   13.73275013515512    7.17435854448826
C         0.31585039429743   15.17153883431426    6.95351625876461
H        -0.74015931441831   15.14643567089082    6.67308649158562
H         0.89057525629168   14.84236521629208    6.08678322287084
N         1.92307890452276   13.92591888639346    8.42174224561156
C         6.78954482645105   17.68310905189087    5.69145146384737
H         7.85705452421224   17.83519482891116    5.60199754463199
C         3.31378070941901   12.42717801055037    9.84100982650661
H         3.23933738625863   11.64201220338052   10.61393647197831
H         3.77740103100802   11.97771755937059    8.95925846723607
O         1.97918573320447   12.55916617913366    6.51591976898779
C         4.57672304210764   18.03000238177223    4.88837755015958
H         3.89246370254801   18.45548405908319    4.16379749058087
C         2.37858913363561   18.03933606081354    8.21758977254170
H         1.69573291604123   18.86210876748820    7.94121261612188
H         3.41119872275441   18.36170018103693    8.03461301006237
C         2.58842667881535   17.07167945346928    6.02948594257585
H         2.07078840073625   17.94650830557082    5.59092639245361
H         2.31777289711524   16.19790267981315    5.42306869799008
C         7.67180497510072   16.90353444957043   10.69247894252361
H         8.17138554707821   17.84826160525252   10.86181393127593
C         2.61589561878951   13.33110106822736    7.22342504285737
C         7.50152055096843   14.55437502671228   11.09353480664026
H         7.86362798699832   13.65417456571747   11.57564086070954
C         3.86085791864552   15.34780843507038   12.07104133599625
H         3.73223903645939   15.39891785828792   13.15669073399762
H         4.83094500013289   15.77919181503993   11.82510829349111
N         3.00378350241391   16.54614718020760   10.04848080095983
C         5.55981492081308   13.24581710358235   10.15432766394141
H         5.72073114611723   12.81838644316317    9.15614998842809
H         5.87462217981671   12.49391559026928   10.90058222092656
C         3.80797554473417   13.86743202894745   11.69399475794256
H         4.49410691784527   13.31582998787191   12.35771744976450
H         2.79576682288983   13.51409856786775   11.91342680112982
C         4.76771779996450   11.62167447113312    6.24020713558611
H         3.76252573000580   11.21109972627857    6.20025821834579
H         5.23822871172860   11.32653432435766    7.17799897724289
H         5.34483860195614   11.20311534382653    5.41930028232041
C         2.76522535844001   16.20522299611829   11.42835607241798
H         1.77980194518682   15.69345278849608   11.56307093809467
H         2.70361624930985   17.13629954321549   12.02910093977960
C         2.23935753028974   17.71387168599766    9.70534271074470
H         2.57241998654190   18.60577301401111   10.28428662756183
H         1.16106776481353   17.58515637418317    9.96496285649815
C         6.14048232990513   13.71075486360611    6.27925359462937
H         6.40989253394239   13.79662492219970    7.33372402027533
H         6.21317240417395   14.69679216529014    5.82816480229058
H         6.85070131707743   13.05218484714482    5.78275613934199
C         4.18664350125621   13.54036422684015    4.73012492319273
H         4.13159542613884   14.62563782881778    4.64794440128924
H         3.19684621296817   13.11625593985221    4.58190834804680
H         4.85159258385996   13.16338695089776    3.95674911052279

