90
CSD_code = KOVLUC | q = 0 | S = 0 | Stoichiometry = C45H38FeN2P2S2 | MND = 8
Fe        1.10312754586552    2.82462869868565    2.76906264104522
C         2.63174524169495    3.04851988096873    1.27053449237545
C         2.21892214545498    1.70065774509968    1.31280851300270
C         2.51634649202276    1.19438721944958    2.59851954015229
C         3.09044980727305    2.23856979556473    3.34841974965868
C         3.15977972212812    3.39258998162599    2.53105577894208
C        -0.48810581799513    1.80154320439192    2.62882918427678
S        -0.39149607165496    0.05515303401720    2.22661533779163
C        -2.12400641435979   -0.06539852192217    2.29806322041324
C        -2.94189159348787   -1.16028372417140    2.08970648350077
C        -4.30856775034686   -0.98487418822569    2.20316207736802
C        -4.84692832111790    0.25895796794493    2.52025712761346
C        -4.03514977576797    1.35510519978585    2.72920644998539
C        -2.65756921962451    1.19948254236954    2.61709159740425
N        -1.71602955031894    2.17295716035679    2.78884014852514
C         0.20766526823310    4.33155215469028    2.15659498040591
S         1.04992866897824    5.76571123268441    1.58929669802613
C        -0.45214072164293    6.59951680771948    1.25941135827374
C        -0.66499309804301    7.86159769709456    0.73518891525648
C        -1.97145741082052    8.27303482572898    0.53667564009655
C        -3.04194907867713    7.44215504830232    0.85584843476719
C        -2.83472494254440    6.18322470352427    1.38650990438980
C        -1.52676364574283    5.76106114361036    1.58876092594377
N        -1.09999160058251    4.56211491652132    2.08545152179162
P         0.64777404373519    3.38754109504257    4.77816559923910
C         1.65438430083481    4.83339932387217    5.24925849956387
C         1.22955394841005    6.11275033328057    4.90027225591213
C         2.05799882232176    7.20351981508411    5.08616468295285
C         3.32489146590618    7.03372531410537    5.61831501186130
C         3.76171390255095    5.76420708070848    5.95979520847833
C         2.93726773820708    4.67194420356594    5.76627666446921
C         0.98898733684203    2.16427937792603    6.09055653882292
C         1.33222056199908    2.48367199430451    7.40127596006878
C         1.52861197735793    1.47682660157237    8.32992525917407
C         1.38062832719607    0.14855857340807    7.96466891434201
C         1.03588015118341   -0.17541096980407    6.66268287497873
C         0.84392285650540    0.82872144826813    5.73194422705285
C        -1.05174068708633    3.92012231781903    5.27732294691354
C        -1.18214284847913    4.32400883625494    6.73958306824515
P        -2.76758553428352    5.28802929198539    6.96094951428382
C        -2.62862368125596    5.79802887104278    8.71544328581163
C        -3.39010867233587    6.89925018787840    9.10430200051917
C        -3.40006139601265    7.32095655982408   10.41891791005022
C        -2.66068618907532    6.63615234811165   11.37057591592558
C        -1.92101379364463    5.52766428907375   10.99774980634893
C        -1.90794487276750    5.10396803664625    9.67957147135457
C        -2.15619159499998    6.83831018117249    6.17932575385464
C        -2.61580170940118    7.15730571945650    4.90692252797303
C        -2.15090304514507    8.28619155803254    4.25504216204306
C        -1.22910137324125    9.11074772135357    4.87616276493192
C        -0.77242660664409    8.80316824872255    6.14799469837361
C        -1.22698930964798    7.66983461204393    6.79505127715209
H         2.61397757128892    3.68081084294935    0.39937382971437
H         1.84711661581871    1.12848922946721    0.48023890692870
H         2.43174068436858    0.16654386864663    2.90816123236550
H         3.51009104544556    2.13620156213719    4.33476907047371
H         3.64167679427212    4.32044302859953    2.78747188456434
H        -2.51935066809970   -2.12266251770333    1.84454491966250
H        -4.96713782674394   -1.82577156589943    2.04370523631494
H        -5.91865794437595    0.36603889752901    2.60362043534526
H        -4.44694175943502    2.32128127490135    2.97916798223480
H         0.16784322435185    8.49898270752982    0.48455690733433
H        -2.16274848270991    9.25251372511981    0.12528643576665
H        -4.05049595929350    7.78802259075316    0.68554650624737
H        -3.65779221829102    5.53064600668865    1.63232244387072
H        -1.69058799748680    3.74504948523790    2.36964820091689
H         0.24501389784353    6.26333972100931    4.48229218945073
H         1.71296093528089    8.18776933605141    4.80660783514917
H         3.97300415154883    7.88588320665070    5.76043765044699
H         4.75193297537521    5.62406748277619    6.36909954225957
H         3.28984881852660    3.68318022356430    6.02281971321130
H         1.45684637639186    3.51600799110432    7.69643471494733
H         1.79914553904873    1.73041424228448    9.34511461665992
H         1.53684028359996   -0.63184654000432    8.69484568590894
H         0.91995426650825   -1.20949818895604    6.37344937357021
H         0.58338879506109    0.59521202689336    4.70955468473963
H        -1.72107790296184    3.08930429360966    5.04023221279772
H        -1.32624566485479    4.75175127136687    4.62233594797686
H        -1.22279226511744    3.43258140214430    7.36848445668753
H        -0.34234929695708    4.95245534136623    7.05379299556854
H        -3.96784494918296    7.42867074520683    8.35778082680972
H        -3.98671976933681    8.18180280365985   10.70516524804786
H        -2.66654568165298    6.96276292156492   12.40000288891714
H        -1.35023587465316    4.98573809532255   11.73831785734533
H        -1.33141278500819    4.23129097342193    9.41098833525177
H        -3.34545989137319    6.51699756596021    4.42967145906892
H        -2.50951769313410    8.52313911110314    3.26465206672759
H        -0.87027820766766    9.99515448600923    4.37008147177005
H        -0.05694078874112    9.44798734100474    6.63798325131597
H        -0.86426235496369    7.43430750955479    7.78601345798548

