43
CSD_code = KOVQOD | q = 0 | S = 0 | Stoichiometry = C18H14N4O6Zn | MND = 6
Zn        6.10633766212146    7.42775753057224    7.32300254530431
O         6.99197072010238    9.18907672232166    7.50261136969016
N         6.35168192914079    7.76364232009544    5.33825469737236
O         8.15296292763140   12.52921150527985    2.36775929583050
O         4.04242307721016    8.37648587677950    7.12482889843338
H         3.72321526871016    8.91174286806137    7.85713121816319
C         6.83418912874982    9.00441865255602    5.15916016319732
N         7.69051743192047   11.38499275846426    2.50496533405599
C         7.68090327688955   11.03601064750756    6.20004393428270
H         7.93270252690812   11.59756047297645    7.08712114176529
C         7.16450947846899    9.73547587691296    6.36529215071554
C         7.85601545067730   11.58062610029068    4.95209820911835
H         8.25188873322713   12.58113057472966    4.83950720247499
C         7.00948972208592    9.56678494284067    3.87853247479990
C         7.53670166902732   10.88760124477752    3.77406036605086
C         6.14891716682114    7.51456451382120    2.98448041692204
H         5.85827713406895    6.88420834302584    2.15886343181422
C         6.01456124019013    7.04056544301436    4.29387098806920
H         5.62542597492436    6.05485226925123    4.50318478389126
C         6.64711472041496    8.77654804468545    2.77259956398843
H         6.76970671415241    9.18934523199290    1.78363182527541
H         3.40632058625484    7.67044330727878    6.97270693809555
O         5.22132841710597    5.66464363416680    7.14384681473330
N         5.86060300302502    7.09196456835476    9.30739045233645
O         4.06849273625865    2.32476369092199   12.28076561324232
O         8.16643913280302    6.47104693224464    7.51812267756730
H         8.47565864138761    5.92530764805756    6.78900479294946
C         5.37999383921380    5.85056110758333    9.48720301980214
N         4.52868348066209    3.46980344817446   12.14286141038341
C         4.53617520843625    3.81713882609024    8.44760673620605
H         4.28485599969656    3.25469288625144    7.56095603582221
C         5.05030097632390    5.11842967829371    8.28153386812775
C         4.36258704442781    3.27277789830214    9.69589860691250
H         3.96850677543426    2.27163712899598    9.80909597205119
C         5.20603203632225    5.28857018094626   10.76816569861174
C         4.68114661447985    3.96688060388970   10.87347124762255
C         6.06347599842981    7.34267424465514   11.66092273357805
H         6.35323737660979    7.97394880312783   12.48614270037065
C         6.19689253089628    7.81616410576814   10.35124117456006
H         6.58462569818542    8.80224336310132   10.14115219037138
C         5.56737733642356    6.08000087698148   11.87357976223032
H         5.44569654884081    5.66754168646357   12.86280685284298
H         8.81225806533969    7.16976344039503    7.66222469036837

