59
CSD_code = KOVRAQ | q = 0 | S = 0 | Stoichiometry = C24H28N2O4Zn | MND = 6
Zn        8.90840571169178    5.67964421905624    2.99416801067720
O        10.57143743539878    5.07004137967121    2.31481486614299
O         6.47813319681236    5.92026934859326    3.22076001168477
O         9.02933112933974    6.45676144899915    4.71963406859503
O         7.97384755160882    5.12052020399246    0.79893969108778
N         8.33053365212392    3.84955313450743    3.49570237980319
N         8.80870689996486    7.44603043592914    2.09678019160227
C        10.97391862662721    3.86514940827725    2.16525470638118
C        12.22963399630600    3.63475840848472    1.53432248499582
H        12.78961262765535    4.50726537442848    1.23056646521756
C        12.72019161433925    2.37725379938518    1.32177200531271
H        13.67913308088125    2.24632488687444    0.83960128093039
C        11.99344602311077    1.25066625896977    1.72433476081572
H        12.38825148856103    0.26070942196761    1.55320724272298
C        10.78442497788569    1.42536823384322    2.34072542188216
H        10.21481814401116    0.56285778030747    2.66288706898025
C        10.24207130824003    2.70417226551191    2.57548217171884
C         8.98134259941303    2.77771231429202    3.22423532156727
H         8.54434778409963    1.81245055016844    3.51898572491013
C         7.06696351396441    3.76608598303600    4.16698745312340
H         7.18234495092191    4.21394125691195    5.15936325371138
H         6.72052938738448    2.72709439211678    4.27128645638823
C         6.02924886257916    4.58510233823239    3.38526190402336
H         5.94912539191655    4.16939120063909    2.37493651577940
C         4.67160346732981    4.65546770972931    4.11518416031737
H         3.87959237592004    4.17933870222121    3.54096356409488
H         4.74139841036762    4.15789910209871    5.08248166461976
C         4.43149500017505    6.15774117817042    4.29594960443653
H         3.94640154415795    6.39880581629563    5.23844169636635
H         3.82858416294489    6.54996453351861    3.47663214582261
C         5.85173830049578    6.71446307345242    4.21068258474776
H         5.90628128452705    7.75341495456493    3.88446362864858
H         6.36830028314261    6.62058431260039    5.17317026730920
C         8.92266628941833    7.68944820728665    5.04400795123134
C         8.94168852151934    8.03931777145173    6.42432153310574
H         9.06628331737665    7.23080666085655    7.12994321405813
C         8.81663300045118    9.33104477903950    6.85193325763100
H         8.83723301978481    9.55386366963008    7.90981567681727
C         8.66314718773047   10.37500763085190    5.93212502677425
H         8.56601187129707   11.39290250437240    6.27799467036201
C         8.64480953834745   10.08521170798110    4.59501670177810
H         8.53254855217073   10.88384160039430    3.87269733141685
C         8.76697951826886    8.76699649276093    4.11329664437836
C         8.73521651808191    8.57208452375541    2.70734711488504
H         8.64495461096391    9.48790183440997    2.10510031363802
C         8.77013930003958    7.40742065927139    0.66454049656783
H         8.54590811948549    8.39249703706997    0.22895748495140
H         9.74783900136397    7.06536963361552    0.30982459502086
C         7.71102570664651    6.38783496798933    0.21972671842737
H         6.73930835768044    6.70248899146949    0.61555005754748
C         7.70012157211488    6.18754911564019   -1.31029652408750
H         8.49592260224125    6.77388369920145   -1.76963299791932
H         6.75253742855656    6.49175097893943   -1.75000767907584
C         7.96255993010928    4.68809339382660   -1.48461137522006
H         7.02253065999013    4.14308618737070   -1.57363278691950
H         8.58359964918949    4.46440491857418   -2.34832600201887
C         8.64738392120187    4.33364840718451   -0.16563311059728
H         8.54087121037617    3.28883096894798    0.12722061472887
H         9.71458581169578    4.58251023126202   -0.19835770190074

