40
CSD_code = KOVTEU | q = 0 | S = 0 | Stoichiometry = C13H19Cl2N2O2ReSi | MND = 6
Re        2.75670138233108    4.48179800827008    0.34440532261160
Cl        3.96555200814626    3.68538675167722   -1.52762641322010
Cl        1.52577214976136    4.99884287778649    2.31275846730171
Si        2.48490012157719    1.25631990838433    1.46342610713490
O         2.80890881995841    6.06016517864746   -0.12794406019571
O         2.67801282954076    2.75392695732903    0.89243241991587
N         4.58861260563364    4.66710869139385    1.46130078925992
N         0.90629516299675    4.14136952636587   -0.69903300625070
C         5.50881685435884    3.70611253152311    1.41670174302436
C         6.67368065095655    3.76328951457350    2.16000375466383
C         6.89497613149482    4.85850447232088    2.97998564331459
C         5.93650393050402    5.85956056407505    3.01482065563342
C         4.79777620277037    5.72763357010512    2.24131298493411
C        -0.06916926472611    5.04899380962205   -0.65544939126476
C        -1.29101650503415    4.84728081786222   -1.27069981432792
C        -1.51316498291901    3.66366371292990   -1.95762277419946
C        -0.49149865377431    2.72835191818910   -2.00418003333776
C         0.70213148567015    3.00560339460255   -1.36299605704612
C         3.67072323125696    1.03035508864937    2.94651030116592
C         2.91177995791407    0.02617611743902    0.06181145429940
C         0.66518230834826    1.07154150208826    2.01216055520580
H         5.30767095450722    2.87673751439941    0.75216302808475
H         7.39220471892656    2.96230360160428    2.09130110972409
H         7.79261769265779    4.93126314001506    3.57497004151592
H         6.06288948640584    6.73298434926833    3.63390203928995
H         4.02057219508669    6.48000138743476    2.24703741298338
H         0.14198798365601    5.95377127370914   -0.10139030714127
H        -2.05264011984196    5.60748539688480   -1.20691656671238
H        -2.45721980227898    3.47632980055600   -2.44617821426922
H        -0.61079460797293    1.79556551819909   -2.53173303707728
H         1.52702468235119    2.30668559235359   -1.38945695554833
H         3.58431111583362    1.85922110316422    3.64400569136951
H         3.43286929854270    0.11854273553373    3.48419020804663
H         4.70954415943190    0.96631044685656    2.63349092240248
H         3.64601727123352    0.44375928000994   -0.62225588629165
H         3.31959777868713   -0.89348607733427    0.46769919632125
H         2.03425420686025   -0.23970981655337   -0.52129069159724
H        -0.01836943939750    1.09784706586508    1.16656065157944
H         0.50854397617519    0.13456240697733    2.53607183019861
H         0.38754202236076    1.88124036721101    2.68125087848902

