25
CSD_code = KOVWOJ | q = 0 | S = 0 | Stoichiometry = C12H8NiS4 | MND = 4
Ni       13.87750113631034    9.79759498571300   11.16198515516865
S        14.02271205785031    8.81342334093461   13.07737445893571
S        13.66836292826380    7.91043127720610   10.13570673765109
S        14.11849052535927   11.68292171169012   12.18465482642889
S        13.69694937394003   10.78363333110719    9.25059832440523
C        13.88969802373883    7.13375837642850   12.71941939091275
C        13.93707918995373    6.17427660659810   13.73945906859733
H        14.05570994639877    6.50650060065763   14.75902446630066
C        13.83311196834034    4.84250187348525   13.42617799530559
H        13.86919297843220    4.10097870242263   14.20955246094359
C        13.68037406331915    4.43354485155341   12.09449278718404
H        13.60134692607947    3.38151291980360   11.86684617202224
C        13.63026439959790    5.35824472692766   11.08207169624404
H        13.51244036158360    5.06094740612597   10.05168649630953
C        13.73306851422443    6.72310281602357   11.38195255448052
C        14.03389831603987   12.87129395665312   10.94060271891595
C        14.15574684726332   14.23508260326197   11.23822833737812
H        14.30776938591425   14.53045015244831   12.26468246343231
C        14.07986318397220   15.16121635388255   10.22873020779505
H        14.17338426923144   16.21242113355265   10.45469454707202
C        13.88094117408779   14.75484604632251    8.90236205220831
H        13.82239640296933   15.49762370406383    8.12153438522536
C        13.76106750520420   13.42396846103430    8.59096000619577
H        13.60831740564483   13.09366987876387    7.57531581861189
C        13.83761311628075   12.46285418333951    9.60768687227524

