67
CSD_code = KOWHIN | q = 0 | S = 0 | Stoichiometry = C28H34Cl2P2Pt | MND = 4
Pt       -0.00063294367855    3.13578186913698    2.45582269924876
P        -1.77420145476084    3.07278331404659    1.02219193467071
Cl        1.54985579459823    3.09406419617441    0.72615917842800
C        -1.41865248367130    6.28719168068098    1.80504467275774
C        -2.40451747046095    5.73745843945159    1.01104312654453
C        -2.86854601419658    6.44186191263455   -0.10801058100751
C        -2.43833102522914    7.71828347361713   -0.33913561438188
C        -1.29042944837530    9.73195093403554    0.42157831649887
C        -0.62802019425934   10.38140562008511    1.40702306349233
C        -0.93363843886177    7.59022190815398    1.58297895521373
C        -1.52824461011208    8.33851783639434    0.53149392121329
C         0.00004213534442    8.25342894191659    2.45573606727918
C        -0.00003258315754    9.66134632418162    2.45579474957328
C        -3.00200578990640    4.40417723736164    1.34019513958757
C        -2.76973691453305    1.54575703061177    1.24377449422333
C        -1.88735877700923    0.31894608152744    1.04464454843066
C        -1.42494634530453    3.19355921951081   -0.78030417630014
C        -2.60278271713318    2.93485734371123   -1.70970207431307
H        -1.09150682871482    5.73472717564605    2.67859338947541
H        -3.60728193637262    5.99210218290919   -0.75621774357326
H        -2.83926113016075    8.29044046097503   -1.16362540107602
H        -1.72170510999188   10.26697669797614   -0.41208884084143
H        -0.53816716500859   11.45818936016495    1.40257012652252
H        -3.24520079341721    4.34248629295304    2.40472329717914
H        -3.90817691265630    4.21997472430022    0.75777551270886
H        -3.62332738206634    1.54531237404857    0.56126822531488
H        -3.14604047589804    1.57297991312072    2.27024847344872
H        -2.42352031178364   -0.59321917819651    1.29856377054506
H        -1.54392953973695    0.24487471992910    0.01454142309002
H        -1.01016985858735    0.39590418020939    1.69013868621944
H        -0.61011506232482    2.49695607242035   -0.99362573831181
H        -1.02665522200119    4.20173261242107   -0.93472123289686
H        -2.30426123786042    3.13041943965807   -2.73791514718181
H        -2.93444754052002    1.90097811869052   -1.64879338889386
H        -3.44412784472112    3.58299542707416   -1.47610887056861
P         1.77438029716470    3.07282491102186    3.88920418819414
Cl       -1.54985398984863    3.09388707796215    4.18567718063844
C         0.93374371539628    7.59024419774168    3.32848403630705
C         0.62792194411954   10.38139524873261    3.50459305782913
C         3.00218907558827    4.40423002313009    3.57127970262107
C         2.76981884230815    1.54572790111154    3.66773147393502
C         1.42487700832286    3.19364252245037    5.69166004008046
C         1.41881357736771    6.28724151775520    3.10639407668869
C         1.52829018431937    8.33851993581645    4.38001445585451
C         1.29039849733431    9.73193301250615    4.48999103467582
H         0.53800194940034   11.45817593162943    3.50909852846869
C         2.40465769622518    5.73749693942066    3.90041744032692
H         3.24541870904067    4.34254140768404    2.50676202293098
H         3.90831622211844    4.22000875130851    4.15373924875792
C         1.88735512100654    0.31898604909718    3.86691946347954
H         3.62338769630128    1.54528776242277    4.35024478727670
H         3.14611739827535    1.57287779141088    2.64125505939084
C         2.60266317703638    2.93486929521776    6.62110840135201
H         0.61000546899328    2.49707324316978    5.90493327916657
H         1.02663886671164    4.20183993805170    5.84605604936404
H         1.09169780940233    5.73480422144544    2.23282019634636
C         2.43838133891672    7.71828668707626    5.25064212247315
H         1.72166318051043   10.26694691052109    5.32367184523654
C         2.86863367679331    6.44188238976113    5.01949906011920
H         2.42344747056774   -0.59322475462580    3.61302506155363
H         1.54393338230788    0.24498041532098    4.89702657096434
H         1.01014669983869    0.39595863381349    3.22145249087751
H         2.30405905340484    3.13047081130092    7.64928854732056
H         2.93427297165502    1.90096836606845    6.56027434628613
H         3.44407501854767    3.58295125283922    6.38760191208070
H         2.83927713721072    8.29043308628994    6.07515462813403
H         3.60734443619619    5.99211458503179    5.66772472895974

