44
CSD_code = KOWKEM | q = 0 | S = 0 | Stoichiometry = C19H21NO2W | MND = 10
W         1.69687650768799    1.32332296700891    2.73621796944327
N         4.90756209990015    3.43815971858861    3.13221092601007
O         3.77543528300744    0.18763084287206    0.72301396240742
O         1.21307524193012   -1.60443928525665    1.78381965275642
C         3.04338332430590    0.63673482560926    1.49830226068842
C         1.35405213854600   -0.52415863676936    2.16708425320707
C         0.45220466054226    3.03681764892202    3.72771723464057
C        -0.43330848839452    2.23648073382942    2.97282447723061
C        -0.05436663393070    2.33889009728252    1.60696430544539
C         1.05406044321158    3.23355123251694    1.53200462849284
C         1.35915128867334    3.66188952076696    2.83979192897036
C         3.83523904800372   -0.79256043761547    4.18768733900900
C         3.28278317412438   -2.02251941709185    4.40044952708802
C         1.95817773654752   -2.15107327339162    4.85674097069823
C         1.22057157382576   -1.03462743861199    5.14157055760488
C         1.73945502497669    0.25766105239120    4.91030704761837
C         3.07940343386906    0.39445620703042    4.41079664732972
C         3.47987643306717    1.73261608179304    4.07936600854233
C         4.88543721944447    2.05331868422155    3.62516291786015
C         5.88366659142902    2.01606795050269    4.80643865394284
C         6.08545274002326    3.48855972119774    5.15415328385732
C         5.99738556560166    4.14485880451150    3.78396489989096
C         4.92288004272285    3.55986310839949    1.69516948682368
H         0.34189561307806    3.27833139397400    4.77786915525878
H        -1.31770682872295    1.73760180629199    3.34451053847059
H        -0.62195199610587    1.96904933053057    0.76093504106916
H         1.48630305810981    3.61934648878167    0.61795136519657
H         2.09048291955413    4.41299409226524    3.10061980533359
H         4.86402555481060   -0.70544140427023    3.87002471229185
H         3.86953581965333   -2.91354270097457    4.23487239430677
H         1.54640174241251   -3.13514093554620    5.01863433563665
H         0.23025639386363   -1.13271759180147    5.56560852732982
H         1.29391353103937    1.07918385089793    5.47002547817253
H         3.13876930762823    2.49346376555788    4.78938383728998
H         5.19934233616945    1.35354180855127    2.83852668522508
H         5.50088574930423    1.43182356328002    5.64171766591281
H         6.82857667183811    1.57732525465300    4.48294260645191
H         7.03357059148268    3.68140737173777    5.65254216501381
H         5.27386737338742    3.84402280476101    5.78931372217861
H         6.95066424049635    4.02013891239963    3.24112305944944
H         5.76856296343940    5.21255846056928    3.83245892049114
H         4.07957250887895    3.00778782177630    1.28181443583681
H         5.85157494669399    3.17416048236259    1.24426830502642
H         4.82230305387589    4.61240471549599    1.42919830449937

