44
CSD_code = KOWKAI | q = 0 | S = 0 | Stoichiometry = C19H21MoNO2 | MND = 9
Mo        3.20904874954506    2.58452624708349    1.18233103321817
N         2.87992505690478    2.23616997154525   -1.07645975716608
O         0.53561692262791    1.08363483642373    1.46426280436134
O         0.81502240159096    4.21091380208266    2.19875886706954
C         1.54650036723355    1.62328089595096    1.30253424765378
C         1.71519240505018    3.62664568517163    1.77670859919864
C         5.51312363782091    2.71398478381665    1.38022603149201
C         4.92359041736426    3.25070162797261    2.54873800770113
C         4.24852048947931    2.19668929222667    3.21463927764794
C         4.45450944827010    1.01085036180385    2.46712300356408
C         5.22378851072667    1.32993074380083    1.33996749282272
C         3.33014459523917    4.34696305988057   -0.21789799325939
C         2.85563412249990    5.67204537404896    0.21975520112112
C         1.55237522968840    6.14149425256163    0.04519991988203
C         1.17319054064792    7.38447831280295    0.51501789992557
C         2.07978642605315    8.19804455170835    1.17160952165170
C         3.37870706831630    7.75353593387986    1.35129534630198
C         3.75727772537682    6.51422193685301    0.87727432724181
C         2.61660205303713    3.66088538045961   -1.36048587797516
C         3.16176548674532    3.95713557714039   -2.77647304467854
C         3.98523193789451    2.71786337560822   -3.15034508717968
C         4.10874362033787    1.95069580224394   -1.82634424569318
C         1.80892650949357    1.36803848043068   -1.56219873667099
H         6.25299053683288    3.21642724953519    0.76638106777245
H         5.09274886536845    4.24046106569056    2.95142644164003
H         3.82374126430397    2.24671455961447    4.20979648778376
H         4.15351974614089    0.01666438397924    2.77017230982350
H         5.64246238766300    0.61449065484484    0.64225405033018
H         4.39227283786065    4.45042514271874   -0.47426177333221
H         0.81120819690369    5.53185246500885   -0.45117691144906
H         0.15632813230680    7.71944644166443    0.36961711588466
H         1.77769733663285    9.16696719490271    1.54036362978663
H         4.09963770432788    8.37818281933441    1.85987565880907
H         4.77835070757747    6.18306480888836    1.01699757960766
H         1.53811381900786    3.83315825443008   -1.29880614171150
H         3.77650956088425    4.85653246497224   -2.75454469404327
H         2.35384564431524    4.12700812794135   -3.48686462969843
H         3.47320916343627    2.11734032529914   -3.90248491026013
H         4.96573072425773    2.97517592923980   -3.54647850059202
H         4.96576980478239    2.33704494052917   -1.27267964279865
H         4.23496116362831    0.87590141017310   -1.96567163790102
H         2.00370712952897    0.33869103259430   -1.26011887373977
H         1.72519593389355    1.40928965507664   -2.65233623552082
H         0.85747561839998    1.67823078806115   -1.13119722862248

