26
CSD_code = KOWNIT | q = 1 | S = 0 | Stoichiometry = C9H11ClMoN3O(1+) | MND = 9
Mo        0.91300809051093    6.33960921567632    2.86003335938593
Cl        1.99781039645035    6.63842789113259    5.00164029182268
O        -0.10236398652032    9.01338866623344    2.28072414548105
N         0.32757428370912    7.96433697492132    2.56593342669839
N        -0.64343949739314    6.18251326886862    4.18199002713473
N         2.75400092276242    7.07033106824569    2.33856168205708
C        -0.43820308252379    4.61202945126199    1.99658870594969
C         0.09330195801916    5.26105572916266    0.86544030830055
C         1.49499001239711    5.13790712244085    0.92088253289873
C         1.82991453116597    4.33230386807595    2.06249392189791
C         0.64646423962243    4.01094901267555    2.72114516397419
C        -1.37707984632043    6.27444512036234    5.06464937286748
C        -2.29225096096137    6.39846722867990    6.14030013468356
C         3.76226481909918    7.62224999154816    2.27299335498339
C         4.99850102122503    8.30889268716530    2.17326122000170
H        -1.48822647945017    4.39129455064243    2.15149349320426
H        -0.47637894440241    5.68592548251078    0.04977404142633
H         2.17423623444651    5.38572534437996    0.11315284274530
H         2.81099454034370    3.92310880155610    2.27077195563423
H         0.53771793351272    3.30631944968593    3.53655505257837
H        -1.75315430141348    6.72447195905665    7.03178037671442
H        -3.05745322083905    7.13667610774574    5.89539922149305
H        -2.76772355803884    5.43833724442775    6.34448182877799
H         5.14468276154484    8.67284921499171    1.15532527384453
H         4.98667477099788    9.16045697389536    2.85618793131502
H         5.82183736205662    7.64692757465366    2.44464033412933

