83
CSD_code = KOWXOL | q = 1 | S = 0 | Stoichiometry = C36H36CuN8S2(1+) | MND = 4
C        -1.68779968389996   -3.11119598914906    3.90796631010018
H        -1.99558800718163   -2.06905840831313    3.83620267065283
H        -2.55087782928382   -3.75709381797188    4.05895235539601
C        -0.67902954023635   -3.26769138596705    4.97191110776228
C        -0.96889989042082   -5.73330905704304    5.22843355910755
H        -1.04891764835943   -5.85317022133941    4.14709797820412
H        -1.96369977390003   -5.81757254674414    5.67270245495614
H        -0.34032048310597   -6.52726667013716    5.62510593692617
C         0.61284500014404   -4.22085027123656    6.46906237724151
C         1.30823351113796   -5.04239735483049    7.34569539094445
H         1.11447119768977   -6.10158876722112    7.40984642575124
C         2.26270259099649   -4.44382829747877    8.14119101472262
H         2.82442967247823   -5.04923311318067    8.83532826804501
C         2.52234658724944   -3.07157645135096    8.07576400341965
H         3.27935978695120   -2.65405917321778    8.72143896601893
C         1.83575171545961   -2.24892058087578    7.21052068813133
H         2.02375318294454   -1.18920248148334    7.14735758821284
C         0.87193953987486   -2.83506004513923    6.39837022435291
C         0.15957482628862   -2.18660231846561    2.02382615537012
H         0.83919781965652   -2.14789016152620    2.87384026368843
H         0.70253364271920   -2.41749544896185    1.10930620473189
C        -0.59536186620039   -0.92414861279746    1.93252785101277
C        -1.33880582821518   -1.22988224373269   -0.42901853754532
H        -1.51176043758001   -2.29236536710783   -0.25258060269393
H        -0.41260837397641   -1.10817937638407   -0.99590404288729
H        -2.16407178396250   -0.83179248112477   -1.01488355094644
C        -1.88432591499321    0.66235469604566    1.13798853073210
C        -2.68863537697744    1.52550435321869    0.40744743514204
H        -2.94295858149511    1.33195154731248   -0.62285674951238
C        -3.15353299433028    2.64988100809724    1.05651627106274
H        -3.78237364242285    3.34525088177841    0.52292608169522
C        -2.83448117378168    2.91051027738696    2.39178379138333
H        -3.22887033257253    3.79993646815690    2.85821030106450
C        -2.03455255976728    2.06047208116379    3.12349671025402
H        -1.80403836516068    2.25384779075306    4.15827489288249
C        -1.54911639578636    0.92345521519992    2.48562855839098
C         1.72629961189981    2.05396006141645    6.71105948189478
H         2.18912101685068    1.13125604419409    6.36401718675549
H         2.17605261979156    2.38106013435212    7.64678833284282
C         0.26696879692433    1.87518070733856    6.82370068871069
C        -0.11043672408928    3.82930163398095    8.33077295623844
H         0.33625121395904    3.51050203490377    9.27576276265854
H        -0.97455136437633    4.45400027318723    8.54545222323631
H         0.61851776133945    4.41601527786453    7.77027581692156
C        -1.81915038222179    2.23178105020925    7.40671157816862
C        -3.04074115629293    2.65698664165334    7.91059493222205
H        -3.12055593909968    3.50512802924145    8.57226376240535
C        -4.15763234235242    1.94258872300273    7.53070023664691
H        -5.12545944613299    2.24245776133921    7.90121136225444
C        -4.07158495778365    0.83705100128981    6.67912533764145
H        -4.97677172322126    0.31297422901462    6.41404649874833
C        -2.86353193591540    0.40700026405242    6.17663391657807
H        -2.77966705346945   -0.44319262428422    5.51897543219801
C        -1.72695285263402    1.11677212760479    6.54609861178612
C         1.65175998584314    2.48250226114000    3.94948463132181
H         0.61201724677807    2.17308135083438    4.04484022366952
H         1.76259317153141    3.21269021076467    3.15018175494295
C         2.50792444490857    1.29809199657762    3.75935373656805
C         4.47882333802532    2.53656867738977    2.86255556925742
H         4.13258335189338    2.86680670124738    1.88016222632672
H         5.54248932224225    2.31740605741301    2.80462459328599
H         4.32289966649800    3.33975030468115    3.58407833057637
C         4.26349339787320    0.06712906219322    3.29830139485196
C         5.48088247788220   -0.48153662928528    2.92073450781843
H         6.27624848334143    0.12303332985682    2.51381971767921
C         5.63460756699597   -1.84173525350673    3.08788396162452
H         6.56688708574728   -2.30601587542036    2.80680392904161
C         4.61400261744263   -2.63557514244817    3.61786601102000
H         4.78514427563240   -3.69421920971863    3.73688557882828
C         3.40141662707931   -2.09965149929647    3.99246989209506
H         2.62164383258326   -2.71028648233097    4.41726013627358
C         3.22249070507091   -0.73026819501791    3.82477147593927
Cu        0.21408730576130   -0.37486999558031    4.79084985507655
N         0.05255779363452   -2.28359749201572    5.44756358502018
N        -0.37351857178545   -4.46347988511009    5.54231136443632
N        -0.74822881422566   -0.09348693189146    2.94061471318086
N        -1.26989285343436   -0.52681646213698    0.82273042948817
N        -0.41247131323711    0.93688987204131    6.20082238473008
N        -0.53320510417074    2.69542424050422    7.55545142984019
N         2.14985317228523    0.07956202140201    4.10077341861821
N         3.77820847433319    1.35372816769849    3.28204413424954
S        -0.99452504416190   -3.59396950659953    2.27540729848623
S         2.13063962447288    3.36538725990415    5.48808571407881

