99
CSD_code = KOXGIN | q = 0 | S = 0 | Stoichiometry = C38H54O4Si2Ti | MND = 4
Ti        9.36873254645095    2.55601006889867    5.30838373268741
Si       11.93508142374736    1.82003843863895    8.71451697635755
Si        8.10964063170824    3.31794731520269    1.80519065959348
O        10.73902115142597    2.97663292432279    6.35127119132736
O         9.93004890584454    2.08236113969202    3.70450165984078
O         8.52191550163146    1.22903854893565    5.99546717282731
O         8.43712788944341    3.99832559726041    5.17051524386228
C        12.45357403339751    2.71925948268671    4.72159399679441
C        11.91661856474189    2.47206289107910    5.98183189178611
C        12.64717434025878    1.74289642630967    6.95811119551959
C        13.84696047954450    1.18404119971489    6.60820713726302
C        15.58879553851103    0.70301673656746    4.93348560815724
C        16.09522188016438    0.85637370937797    3.67324245495353
C        15.40313815726014    1.62909741829543    2.72857842615414
C        14.22621186333473    2.24081067326879    3.05894133110248
C        13.67981425721259    2.10813814182884    4.35413242775697
C        14.37485981265067    1.31474334495369    5.30665412040047
C        10.13173996081156    1.21392924644666    8.90033390470611
C        13.00242168757343    0.63782966290600    9.77576487154792
C        12.14012073957596    3.63673429066450    9.38011902567204
C        10.86892274950398    4.45533197041577    9.14380866473850
C        13.29795734157590    4.32788090041774    8.65433024977908
C        12.43660443831932    3.63106772668151   10.88233883370102
C        11.72730181145635    3.62480841212295    3.79914215416405
C        10.47423927797206    3.24839236741462    3.33092567550549
C         9.73730973885138    4.06235864615611    2.43376848441826
C        10.27088580658996    5.26163182382527    2.04818869015851
C        12.05660128247623    6.95527126437796    2.14630115559899
C        13.26215593745225    7.38219424577737    2.62967101476406
C        13.98356290693317    6.57753414029957    3.52350502707611
C        13.49822018102900    5.35840147040464    3.90809543093907
C        11.52298204780675    5.70724623488550    2.52628613768989
C        12.26417568003942    4.88242655248142    3.41511334645683
C         6.86870422760001    2.59385140364409    3.07022804141486
C         7.17884342255758    4.75209648714135    0.93755111139488
C         8.56093532840027    1.96315905309498    0.47691764558090
C         7.45497712243158    1.86461893745342   -0.57609530690928
C         8.73604115308844    0.58632279682306    1.12325719171933
C         9.86953292138620    2.33831005486365   -0.22401758720041
C         8.67528652670624   -0.15290744962749    5.93329232118187
C         7.75289919533733   -0.73752632563084    4.85451739940707
C        10.13603348265975   -0.52620620798085    5.63786527682534
C         7.60152123753156    4.72327028837167    6.00491125688918
C         7.27121619452081    3.90223539439698    7.25978007415401
C         8.27458844048334    6.05217360275567    6.37355516179029
H        14.41581124159094    0.62928954131586    7.33991208100194
H        16.11067879089691    0.10505719950062    5.66750637406217
H        17.02558518163074    0.38301429641149    3.39526113487504
H        15.80750940355630    1.73594996970868    1.73246210868096
H        13.69206656886807    2.82921379616194    2.32722299746123
H         9.50762710088023    1.56717590815696    8.07909426824596
H         9.69658451728213    1.56583714418591    9.83165117278115
H        10.08848749760422    0.12804888680309    8.91798440302426
H        14.03246737392492    0.96966178351809    9.84510835768901
H        12.61226776361665    0.57459447003381   10.78500464941469
H        13.00786402418624   -0.36723709064028    9.36614657983026
H        10.03552594466425    4.05314681500853    9.71616716551338
H        11.02200993605564    5.49065630793926    9.45094323340807
H        10.60599860814424    4.44150115560891    8.08765064301374
H        13.07927266507925    4.42480198851505    7.59275003950969
H        14.22072166253452    3.76096127383769    8.76103243328654
H        13.46159564499184    5.32599915330220    9.06115718601105
H        11.64705988052668    3.12398509048953   11.43227330529144
H        12.50906473469474    4.65205806644704   11.25662345542827
H        13.37560028314197    3.12625580226675   11.09100986376374
H         9.72897436335819    5.89903384037761    1.36462621761407
H        11.48800108298904    7.57213244091365    1.46448315601466
H        13.66290120762716    8.34048954072405    2.33298328566159
H        14.92899083719528    6.92952218551695    3.91001799299765
H        14.05482026577558    4.74480810033972    4.60118516007132
H         6.30662606019579    3.39457501356168    3.54425241948531
H         7.37955422619977    2.03470779109041    3.85698778187632
H         6.15191098630411    1.93609653476572    2.58382353555580
H         7.70702175468160    5.10639324749736    0.05908750284702
H         6.19554187365907    4.42829362726207    0.61579282066697
H         7.04321866205201    5.59806965272933    1.60410112465910
H         7.68654679572345    1.08067519762415   -1.29658892430022
H         7.35147792214914    2.80165983855648   -1.11514880567759
H         6.49852620005175    1.62986525103225   -0.11547177483235
H         9.07518710783852   -0.13952456118237    0.38350546860608
H         7.79284109638245    0.23274572972731    1.53444320958971
H         9.47127377712418    0.63085121078422    1.92396065025850
H        10.10387918194413    1.61581982361581   -1.00580805030090
H        10.69361335311998    2.35286502159623    0.48599375828533
H         9.79762017579674    3.32282436829997   -0.68092504286561
H         8.38343298276354   -0.57507191251766    6.91551856255647
H         7.79421843293086   -1.82398761585965    4.86821144971598
H         6.72705085951185   -0.41974104762026    5.03472446814961
H         8.07297891535120   -0.37597222316829    3.87796095172404
H        10.43679681661405   -0.06518734609601    4.69151838605645
H        10.24248335392965   -1.60661443818566    5.55984735543957
H        10.78843491559689   -0.16198491946978    6.43249073412916
H         6.66025613444172    4.94167847738723    5.45930066611539
H         6.84255690820281    2.94194164492345    6.95781750854302
H         6.56519324147737    4.43093361705471    7.89745593477322
H         8.19686759470997    3.71848203912562    7.81169001444148
H         7.64525691020281    6.63300886750260    7.04314819687068
H         8.46508792593481    6.62669878461856    5.46922595002681
H         9.22874143633846    5.84470961134948    6.85694640340563

