94
CSD_code = KOXKUF | q = 0 | S = 0 | Stoichiometry = C55H32MnN3O3 | MND = 6
Mn        7.21363683449022    4.97398562470007    3.71463876310534
N         5.91690201621002    6.01656252638005    2.61004729994893
N         8.40951730170468    6.39372178223324    3.08484852881465
C         7.07277900407110    3.27876998238606    1.25507862950963
C         8.49751453966927    4.11120527411099    4.59933372905719
C        10.39621127500034    7.45930925205134    2.79766800919981
N         7.78332364961447    4.16120890207108    1.97665935821001
O         9.30018289639020    3.54354440619952    5.20028821393171
C         9.11651303702942    4.04782663220343    1.69497149126615
O         5.38937801002757    2.84486279461621    4.57381888164054
C        10.07403244037913    4.98638124350474    2.10491646985857
C         5.78149774913614    7.36154361325703    2.81565045749099
C         9.41816668735319    8.42958111829726    3.13652272340973
C         8.16148803327339    7.71197579047864    3.23397336576903
C         9.77612205823694    9.75941091914990    3.30696155589061
H         9.04664072478440   10.50485072085608    3.57996283647500
C         4.82968057903324    5.52217525033425    1.99717410238534
C        12.37612430707557    4.24804873690694    2.65687660304662
H        12.00547986653263    3.92718071218407    3.61926639128859
O         6.43473561164733    6.38740759219190    6.16398710106068
C        12.06267692540417    9.15680024435683    2.80660080926097
H        13.09282441679193    9.46078695630740    2.69299182650750
C        11.49650488361920    4.81060212031023    1.73931309381051
C        11.97077471610414    5.22883275978742    0.49982786446449
H        11.28556457327815    5.66895526467203   -0.21021988609226
C         6.84169513361070    8.19274838152942    3.20417503305360
C        13.30865317591952    5.07945836239709    0.18214545162449
H        13.67120667790771    5.40566829254341   -0.78157932611557
C        14.18152310496635    4.51410959111850    1.09770472480279
H        15.22583045731837    4.39864969904353    0.84804062704632
C         3.84774007288737    6.58957787669908    1.86004408046422
C         9.29667810564209    2.92911716005832    0.79515868428061
C         7.99913182355808    2.43504332481676    0.51072351448354
C         9.69054506799398    6.19513139945401    2.70957095515855
C        11.72310216054018    7.82849095473363    2.62777332595067
H        12.47969694221574    7.10096582242902    2.38146807102277
C        11.10390999335963   10.10773282989607    3.14206826235712
H        11.40411384182144   11.13543356922579    3.28422630382348
C         4.69141312616642    4.17479183069765    1.56033866500431
C         7.85396515850225    1.34399157933052   -0.33899517047475
H         6.88664025554239    0.93847081404798   -0.57861129376902
C         2.65442052369543    3.67954943265680    0.14990108301716
H         3.17218355365137    4.05603013460548   -0.72028882760946
C         6.61685259128218    9.64056634155440    3.40664447523687
C         4.69804285348081    1.71135488198857   -0.54819685310405
H         4.88163151953348    2.48322451093628   -1.28196322782013
C         6.70184642515763   10.53316116218529    2.34260897760345
H         6.91860442426269   10.16010271804449    1.35201990145754
C         5.07615499178023    1.91740149245863    0.77481035148278
C         6.14930207303830   11.47233530909058    4.89009749635125
H         5.93450887334334   11.83711913589221    5.88361279127789
C         4.45652493606147    7.75519359460424    2.38814600391370
C         6.34227017113513   10.11755683316380    4.68310420231803
H         6.27870369708752    9.42210998147412    5.50706697331072
C         4.11051433600866    0.51944657491473   -0.93046727951277
H         3.81716848296081    0.37205087724131   -1.95975202249463
C         3.28203004380693    3.71218098517295    1.39116639958777
C         2.55960974146172    6.66436919768119    1.34177912068638
H         2.06759060089520    5.80325972888903    0.92424058647451
C        13.71357457433888    4.09907362803068    2.33336381883514
H        14.39215840088864    3.65966643423035    3.04940754830683
C         5.65152991172574    3.21443401915500    1.23984214279773
C         8.98575679530841    0.75239145138628   -0.86687689167756
H         8.87865883494851   -0.10543936210010   -1.51440640231961
C         1.36634250468651    3.19152445705141    0.02957931882719
H         0.89055045561900    3.16825785720200   -0.94006360160895
C         6.23227294225962   12.35764284737082    3.82828108404193
H         6.08262558155134   13.41448162976338    3.99223471665875
C         6.50898113571016   11.88631153420882    2.55496190926655
H         6.57592134463136   12.57463860802419    1.72526111365136
C        10.25704020217462    1.22982770815577   -0.56867831961394
H        11.12360456936052    0.73729655348169   -0.98431689570050
C        10.42521437112420    2.32201801011689    0.25955535006733
H        11.41565104309359    2.67575692948570    0.49284078895960
C         2.58908010315266    3.27109938961443    2.51091122496037
H         3.06800425914940    3.30075502133505    3.47813213548617
C         6.74301436370997    5.85166235562264    5.19152466499769
C         3.77069469411671    8.96233851163489    2.42885568195510
H         4.21738924855583    9.84653128628706    2.85206163633751
C         6.07724997834557    3.67645871564326    4.16409862791932
C         2.48408918728620    9.00732994204202    1.92917322953113
H         1.93122037902002    9.93439725131647    1.96301987012270
C         1.89127116351491    7.87293713016928    1.38581596785827
H         0.88469252881393    7.93324374650489    0.99882506607087
C         4.87695813883990    0.90282272647215    1.70143424827955
H         5.17319107946958    1.05500745353119    2.72837008586492
C         4.29145203441616   -0.29043710965822    1.31582869638040
H         4.13774787008496   -1.07080884140989    2.04620776986619
C         0.68833626337153    2.73552547170680    1.14787928276299
H        -0.31555558726553    2.34934584685532    1.05154866597329
C         1.29970694590478    2.78356954436329    2.38812719772038
H         0.77308502566968    2.43813116130319    3.26529831889120
C         3.90011644068758   -0.48215159285125    0.00265810903139
H         3.43659614228430   -1.41066491616602   -0.29599644070125

