81
CSD_code = KOXPAO | q = 0 | S = 0 | Stoichiometry = C26H48Cl2O2P2Ru | MND = 6
Ru        0.06015389779297    0.42708790742488   14.02427083396381
Cl        1.60370966281926   -1.00461453100035   12.96257346245831
Cl       -1.33419208764850    2.27035920585454   14.49527917445036
P         1.93543430985590    1.56756666912403   14.83227567937117
P        -1.90472221197389   -0.64655912935748   13.18397621386022
O         0.56935266843316    1.82343863126929   12.11112182541844
O        -3.83635529936760   -0.88321332145299   16.72504788713677
C        -0.15659204189280   -0.54583855269643   15.58164495048037
C        -0.33784779040086   -1.24504931630890   16.66726199731248
C         0.23824702516554   -2.55256067282509   16.96430392511457
C         1.13289905869252   -3.15823801828438   16.07956018737143
C         1.66553342911551   -4.39846392163578   16.36737967394714
C         1.31897267573675   -5.05504530748479   17.53822841467591
C         0.43237805093445   -4.46079644577829   18.42096883868026
C        -0.10529850802071   -3.21921997492312   18.13923827903278
C         2.50268695576073    2.57908820609018   13.38321938422519
C         1.27659158460538    2.96824189721741   12.55775268623053
C         1.04474787186919    1.31116564583273   10.88349781923831
C         3.49882024844545    0.62208714200644   15.20158405873737
C         3.34060092973885   -0.20975556633009   16.47082572306969
C         4.76025535358454    1.47887902493456   15.27145666885539
C         1.78745468305177    2.76495490418681   16.25688896460028
C         0.85897359733855    2.14655070761959   17.30004855587751
C         1.26781174074313    4.14535983940707   15.86733503103688
C        -2.96336931872889   -1.29622849444745   14.55468475428905
C        -3.46502141372221   -0.23557998467761   15.52509408405403
C        -4.25080858710444    0.01695652614161   17.71804917364516
C        -1.80219251436877   -2.21820676094493   12.18229711332633
C        -1.07154809474729   -2.00223037625747   10.86102671058317
C        -1.09344663669573   -3.30563346351714   12.98621292985834
C        -3.15260645936004    0.44128521445365   12.30233479455882
C        -2.51626727731142    1.36401904866643   11.26610813561776
C        -4.33334121697338   -0.30981536549580   11.69506123959046
H        -1.00202310778211   -0.84641697755134   17.42961617925020
H         1.40272258694429   -2.64316649673999   15.16888420225063
H         2.35535583743048   -4.85711020629073   15.67399143371329
H         1.73729786027025   -6.02565392969108   17.76144075263476
H         0.15767223304567   -4.96847680597454   19.33478778996414
H        -0.80059154208815   -2.76259141194098   18.82971945661887
H         3.15882471092754    1.93973061034756   12.78248690455705
H         3.05871641533983    3.46325810951203   13.69838195591074
H         0.56987373402050    3.53567315592784   13.17356629860001
H         1.56195822674668    3.58062922748219   11.69075885929806
H         0.41529496714321    0.46207640619855   10.62504445669264
H         0.96244342951472    2.07982888538019   10.10503453467848
H         2.08216076203317    0.96961428433844   10.95138596481570
H         3.58745556993116   -0.06885290995487   14.35243206375577
H         2.39771591795758   -0.75318415274721   16.44997340407318
H         4.14909075593814   -0.93491091051835   16.54510202983922
H         3.36971047310247    0.42104722733471   17.35719939439210
H         4.94939599487596    2.00871336297340   14.34121944864807
H         4.70786802398814    2.20547648458068   16.07997316310558
H         5.61371472442407    0.83101524898384   15.46568709261632
H         2.79426675239898    2.86980470461497   16.68037704061343
H         1.19519540458611    1.15592284486624   17.59624940264953
H         0.81030600862190    2.78005143964624   18.18439186988208
H        -0.14245497216793    2.05598286201797   16.88137561990922
H         1.91968482750151    4.64887771048662   15.15646691308770
H         0.26791449111710    4.06491393952202   15.44740802589366
H         1.20644233279284    4.76673361598591   16.75990565667301
H        -2.34111751640986   -1.98430908128276   15.13219703598846
H        -3.80134252916520   -1.86153297460295   14.13989815867201
H        -2.66759604079963    0.49513880531128   15.73130293649125
H        -4.33091928877021    0.30730998761389   15.11698619388720
H        -4.47614583476828   -0.57417847299130   18.60364017913723
H        -3.46190763276790    0.74437036410083   17.94882796317101
H        -5.14823206521536    0.56760313343146   17.40852113538299
H        -2.83490893445762   -2.53045504764001   11.98354098629183
H        -1.53976535543077   -1.22224602873941   10.26378957965615
H        -0.03417733492525   -1.73728856349804   11.05626555927512
H        -1.07831366080062   -2.92213065546839   10.27732713367903
H        -1.67788888600887   -3.62637587165778   13.84409462771425
H        -0.91763273440622   -4.17365382362316   12.35280275228153
H        -0.12982886740219   -2.94199262375397   13.33684370380399
H        -3.52005236370323    1.07970435294360   13.11705823595178
H        -1.68353362464401    1.90732324734927   11.70671143193568
H        -2.16109776983124    0.81333318568744   10.39738839616601
H        -3.24977137092924    2.09383329659563   10.92478310526059
H        -4.80973169919152   -0.96980158267128   12.41570563921706
H        -5.07861292809426    0.41087641691472   11.36044440798313
H        -4.02545026627057   -0.89480574971536   10.83100175321982

