33
CSD_code = KOXPOE | q = 0 | S = 0 | Stoichiometry = C10H10Br2FeN6O2S2 | MND = 6
Br       17.77151612069086    5.66812999728559   12.04142634358113
Fe       19.62476421936000    5.28207585545783    6.69072728421631
S        17.35650471133568    1.50621845950290    7.87764781254009
N        17.68984695703808    7.71544458393787   10.20765028965571
O        21.24840288687658    4.42961821503098    8.06314848651258
H        21.96871528736247    5.05499763931032    7.91331221799319
H        21.15033693854767    4.33310691579387    9.01563293002483
N        18.35515639681293    3.90156685324569    6.95155299311613
C        18.61515395344460    5.70966180770639    9.32541254514756
H        18.85166574592178    4.66321778746327    9.45006500065843
N        18.83839345934498    6.26125894242069    8.12740157505171
C        18.04719981194585    6.45510426430424   10.34726399849393
C        18.47011380003541    7.54314027988245    7.97630556916527
H        18.65988857557068    7.98893826825676    7.01352985987440
C        17.95800085077071    2.87048145594140    7.36402593519444
C        17.89690722907808    8.25524592889918    9.01427917546058
H        17.59706365274606    9.28636068363005    8.90059491063686
Br       21.47587207083670    4.90187485943038    1.33971362201637
S        21.89402347967152    9.05800368068609    5.50555946982102
N        21.55806985730529    2.85197988282499    3.17066027113350
O        17.99999067314855    6.13313895304547    5.31803082058989
H        17.28032034394904    5.50757739635079    5.47029124882854
H        18.09694884777285    6.22701995802885    4.36516996663149
N        20.89483995764634    6.66237133950441    6.43040662251014
C        20.63376228207679    4.85678595778092    4.05610964594890
H        20.39738105247999    5.90344530813422    3.93301241035053
N        20.41104312224057    4.30360093225027    5.25350775429058
C        21.20100170091195    4.11261680499871    3.03295321492321
C        20.77906879979620    3.02145395181255    5.40268837086091
H        20.58970708548328    2.57447041908574    6.36499717807080
C        21.29197009096449    7.69371991772978    6.01853050230966
C        21.35148922889928    2.31060267906853    4.36340062181913
H        21.65118080993986    1.27927002119958    4.47549135257044

