39
CSD_code = KOXQIZ | q = 0 | S = 0 | Stoichiometry = C10H20Cl2N4S2Zn | MND = 4
Zn        7.67837231356646    5.84182235328704   10.00440837460434
Cl        6.37882196130706    6.72622831719114   11.63896272628672
Cl        8.51649951497916    7.37885481916435    8.55962392986728
S         9.53546725358298    4.51308067689479   11.16569851418002
S         6.53018418395481    4.05223013936782    8.60069065544745
N         9.88251376566254    3.87976174862426   13.72115810761436
N         7.90117832699841    4.73658771927861   13.29955354674478
H         7.24208633667306    5.36998645730427   12.82099430459700
N         7.01562168499127    3.26228693890426    6.11216031711591
N         8.11882397643204    5.07459006657307    6.67530513863900
H         8.37142524158187    5.91309303449743    7.22017386269247
C         9.07373174616676    4.38868043728879   12.77851543031090
C         7.89439939444619    4.57322993417604   14.73939074464423
H         7.01081701229399    4.01082900741330   15.04874212060886
H         7.87499505688181    5.54996923970202   15.23323439437042
C         9.20587245625606    3.81416814688433   15.00373266430402
H         9.81891415477188    4.28426158735796   15.77774898569250
H         9.02419336029988    2.77190225937002   15.28824945487847
C        11.15444736496874    3.25019590157256   13.48618577175630
H        11.78386341844737    3.42580698432671   14.36298495123356
H        11.60344953690489    3.74005065726579   12.61927447713747
C        11.01997003856478    1.75422194846123   13.21390125994385
H        10.58741052744866    1.23852918076262   14.06806403921546
H        11.99838486023971    1.32872279834760   13.01192654031045
H        10.38507504432927    1.59606318173621   12.34628547932417
C         7.25357065092787    4.15626572676804    7.08374760460558
C         8.49855591878988    4.88145977554239    5.29206845087593
H         9.58031433051189    4.73950481263935    5.21635273194005
H         8.22243495334267    5.75586569965840    4.69636916879140
C         7.71157096365820    3.62065493681582    4.88998829681211
H         6.99698408641923    3.81745823298289    4.08440993938491
H         8.36681466134239    2.80072976672166    4.57892251157521
C         6.08380421243200    2.16879137424640    6.18143956430733
H         6.02552201144872    1.85678747873130    7.22661441182164
H         6.48299455140159    1.34529999121542    5.58251362296273
C         4.69404855397640    2.56481596851239    5.68975859987161
H         4.31183471678938    3.38344744682742    6.29342772874145
H         4.01741871110920    1.72042797350071    5.78066584568502
H         4.72191314611705    2.87643728009891    4.64825573112998

