107
CSD_code = KOXRUM | q = 0 | S = 0 | Stoichiometry = C62H40N4Ni | MND = 4
C         2.55819136892940    8.72103852721738    3.12439796306298
C         1.37558395729069    9.46585725583511    3.44481740995500
H         0.39969991784321    9.03890936661194    3.56940166809351
C         1.75340791395541   10.75622189481862    3.58697089775005
H         1.14960474987315   11.60133949686815    3.85284005142310
C         3.15776807515832   10.80711221797532    3.30272278060074
C         3.87265708232635   11.98313497068476    3.11719202254161
C         5.20859636760024   11.95722085701484    2.71957986901890
C         5.89222719735708   13.09415226853761    2.19525016794648
H         5.44829525825508   14.05697468467209    2.03194761564073
C         7.15112396953104   12.69376716033840    1.86442289908163
C         7.24762452621253   11.31350469115096    2.28326836572397
C         8.43539795943296   10.60776545324360    2.44082208788523
C         8.44228135742955    9.31198124786057    2.95305354277359
C         9.63890462407196    8.62929722952646    3.34802695423147
H        10.62396324942172    9.05154656054691    3.31426302315518
C         9.26568801423895    7.40163741037990    3.77357054281229
H         9.88369859463015    6.60680417967950    4.14268722059889
C         7.84253676514940    7.32498279831075    3.61608289550880
C         7.13340052346215    6.13705766233265    3.75778454243463
C         5.78030148209979    6.05343279852835    3.44808329953233
C         5.04973441855099    4.82515157328120    3.27655427831190
C         3.79821917241687    5.17271743563511    2.84429404767166
C         3.73851349765262    6.61250275856017    2.89300486334030
C         2.55653335141723    7.34563261869395    2.90584157120890
C         3.20773615859587   13.29024058787586    3.25983430290570
C         2.09297924092637   13.61961512821413    2.49406637254203
H         1.71674267723848   12.90912674593467    1.77240829994681
C         1.48616915189830   14.85407830012622    2.63685853349961
H         0.62390759218963   15.10055231462294    2.03446993794349
C         1.98198349361932   15.77373801704646    3.54588543135094
H         1.50469180332527   16.73596312416856    3.65828676099719
C         3.09505946136890   15.45664462948714    4.30675056495012
H         3.48710796085557   16.17180353518664    5.01520801420211
C         3.70769430438907   14.22578835123967    4.16189244959679
H         4.57336346121895   13.97401498128930    4.75732358458783
C         8.14603288311203   13.50482704146429    1.17029353028059
C         8.77778037617473   13.02982658583402    0.02351728222585
H         8.53452666642868   12.04446404802364   -0.34594126981696
C         9.70125027587375   13.81340312916921   -0.63976534197399
H        10.19067709625932   13.43286894238708   -1.52439699365253
C        10.00051503583316   15.08342626422498   -0.17495154810782
H        10.72973013608270   15.69093944608426   -0.69034837997693
C         9.35535979620521   15.57466789612599    0.94711369657004
H         9.57706121018639   16.56942213615528    1.30595009566477
C         8.42809774189143   14.79467252132035    1.61162974718175
H         7.92932188562559   15.17320764862796    2.49230151178374
C         9.74039959819195   11.24568059990152    2.17773947266602
C        10.59190602467908   10.72961349754839    1.20632676347347
H        10.28433394422304    9.86254420966746    0.63939593908366
C        11.81063300792618   11.33138649858729    0.95458832047068
H        12.45965732976783   10.93034264109397    0.18975420536292
C        12.19880170724672   12.44520581268420    1.67951542051709
H        13.14910360217769   12.91743929635918    1.47936534945004
C        11.36843957993685   12.94733194694877    2.66695078412425
H        11.67311415890347   13.80829787109816    3.24340537995564
C        10.14697026594941   12.35108839247335    2.91717257234169
H         9.50139679469651   12.73682619706478    3.69255038254728
C         7.90976513905909    4.93930662007899    4.15274743660697
C         8.38484700723758    4.05816349078805    3.18875468070760
H         8.16812282604430    4.24404114588495    2.14709198888240
C         9.12588246161594    2.95238153951199    3.56117261578447
H         9.48412817616833    2.26797467521733    2.80647525061804
C         9.40975670110380    2.72305200985272    4.89674455171281
H         9.98689383257553    1.85736641177398    5.18619007332736
C         8.95950890390461    3.61024345699629    5.85902747446191
H         9.18886438857889    3.44111682565830    6.90112324809839
C         8.21575867206784    4.71635704673239    5.48953788685089
H         7.86415833876099    5.41315564036336    6.23704181807681
C         5.50777743021410    3.44649338157810    3.46959443020410
C         5.62993267651420    2.59187899964117    2.37937125370997
H         5.42544766751794    2.96693993480765    1.38688807353122
C         6.01804662508461    1.27808201536576    2.56300832412965
H         6.11836565296460    0.62380794461837    1.70917293140257
C         6.27435113882592    0.79990686565188    3.83638973537408
H         6.58061065340691   -0.22597820305769    3.97887551130021
C         6.12739011202255    1.63787422920786    4.92900122636417
H         6.31214779004668    1.26495145577113    5.92591695265746
C         5.74026341535998    2.95148209551739    4.74907666321222
H         5.61290160963970    3.60273883509886    5.60183625701466
C         2.77547831986389    4.24031732820835    2.37799698706036
C         2.18953868471496    4.41962585331570    1.12711731562147
H         2.47977791989475    5.26706529995571    0.52291545630577
C         1.25148197697857    3.52090463682250    0.65911937348489
H         0.79967154621113    3.67291973248113   -0.31036080262281
C         0.89161182644812    2.42652160668421    1.42766184668711
H         0.15446672969346    1.72687525226894    1.06212422956825
C         1.48453411687633    2.22973776500551    2.66306789102358
H         1.21304085042358    1.37318781910369    3.26288406332827
C         2.42446497841196    3.12590753298634    3.13459227528692
H         2.87970729268846    2.97395242008793    4.10201076193862
C         1.24080429670245    6.68072597658565    2.81309042208752
C         0.39521276871678    6.95476399213912    1.74346407456322
H         0.71758211544705    7.64547370943426    0.97743261557317
C        -0.83776546381145    6.33645950008113    1.65154821390111
H        -1.48256577698903    6.54621731556505    0.81054961060086
C        -1.24597102813533    5.45138984662253    2.63470995087332
H        -2.20780381617022    4.96599300923879    2.56096402193913
C        -0.42124095395579    5.19661687986897    3.71711340603636
H        -0.74171123068514    4.51712020534869    4.49299092692756
C         0.81472872760999    5.80840630342266    3.80841497164000
H         1.45615749293781    5.61691191750129    4.65616854316990
N         3.64381174478197    9.54544996741283    3.08398668598721
N         6.02886161926995   10.86774609775079    2.72661155236170
N         7.35184552522726    8.51372760054358    3.15173396879190
N         4.97290088667840    7.12734063123244    3.18821498380225
Ni        5.50035981417108    9.01381392695353    3.04030651708750

