47
CSD_code = KOXVEY | q = 0 | S = 0 | Stoichiometry = C14H8F20FeO2P2 | MND = 6
Fe        7.02779043950287   12.63416892972005    2.69808359423409
P         5.23320969288600   11.89726901624690    3.57376978841514
P         7.99792741572359   11.18611842116516    3.89868768835988
C         5.47174841179181   10.22080831352750    4.34338611794178
C         6.88438981137471   10.12354545233993    4.92397686372004
C         7.40322755757473   14.40015484880804    3.92316672043331
C         6.68516525165071   14.77337993555273    2.81213048479981
C         6.45633440023672   12.30435100194063    1.05911164664042
O         6.19693420319956   12.08204905582576   -0.02936120919982
C         8.46780410648520   12.95429134098321    1.74601438310221
O         9.36278064570215   13.15193651917956    1.06974106069852
C         3.74048156692911   11.37161102069408    2.51378408267048
C         3.07957054068816   12.57130609989363    1.80169189053373
F         2.83097338275687   10.66334678761089    3.21318707183064
F         4.24658690874676   10.52088912267094    1.59385641828899
F         3.46551244618510   12.66711441899886    0.53939172643128
F         1.75970142229457   12.55089487987986    1.83628904760024
F         3.49795501042428   13.69099780755550    2.42637455131008
C         4.36052739297958   12.75378652054464    5.07013234327057
C         2.93088421068955   12.42660386998255    5.56055239967456
F         4.42194652421131   14.08767185536677    4.89346579619933
F         5.21920633273609   12.46916830119094    6.08870678086485
F         2.03487308758311   12.71958511080284    4.62112669586660
F         2.62916288253191   13.12682264242824    6.64648177484213
F         2.80736006426491   11.13503055204001    5.86748399946484
C         9.15864845551953    9.90158736005804    3.07833012977917
C         8.50356871259314    9.38185415851942    1.78813344317209
F         9.43010664641413    8.85188218885814    3.88665540045823
F        10.32924090452076   10.50091458058784    2.78116592269027
F         9.00116982529726    8.24217385068445    1.34274726568972
F         8.58416253071650   10.28971149912615    0.82194628403077
F         7.19447876627586    9.18876881696607    2.03806451284381
C         9.28799810745348   11.69813272300723    5.22192256345686
C        10.12705618713592   10.70907233990848    6.06508965304286
F        10.11900668819509   12.57160155793796    4.61208482426192
F         8.54196302436607   12.42644159054098    6.09444044793660
F        11.14970847016338   10.21191856161500    5.38639796958046
F        10.60713060379319   11.30162829509865    7.15342859882198
F         9.35987234947834    9.68991534008099    6.47197630359938
H         5.34973616887225    9.49877908064974    3.52884502378440
H         4.71807623289044   10.00364261568559    5.10587376360292
H         6.90288059341719   10.53906269342904    5.93833918525289
H         7.22961010083540    9.08604384467783    4.96895120088043
H         8.46685522913184   14.59679624976229    3.97146799583420
H         6.92235866309303   14.34222522727907    4.88975746856889
H         5.62994599940164   14.99464139204780    2.89759399061923
H         7.18317203128215   15.26690420852817    1.98595633409608

