55
CSD_code = KOXVIC | q = 0 | S = 0 | Stoichiometry = C19H12F20FeOP2 | MND = 7
Fe        8.74775968768573    9.55881534869893    4.08509342317643
P         9.70754093836988    8.61981886023357    2.42645108969600
P         9.49225881815744   11.44433944254710    3.50462618150189
C         7.17428701794183    9.94552684118959    3.40727090963830
O         6.09488283844717   10.12057740528847    3.07674833186299
C        10.67289006532211    9.91548826421323    1.49458454884827
C        10.05087697607372   11.29700056895782    1.73352184068536
C        10.27849827311987    8.88902016810328    5.47200232244749
C         9.23874108903603    9.52520437299501    6.15336058459124
C         7.89973231040483    8.99804012734587    6.15965711059704
C         7.58767276176520    7.83561640131037    5.39533477249410
C         6.25042571612453    7.46253408599554    5.23293397271828
C         5.23912229520959    8.20189051750154    5.80091834400585
C         5.54103282957768    9.31543106060987    6.59141616262142
C         6.84111646394708    9.70806140587803    6.77001319610056
C         8.62848683977560    8.08166884015684    0.94140061638935
C         7.66961248277279    6.95354435417717    1.36125286534705
F         7.90930586900886    9.19795868473244    0.65761432565346
F         9.27792386008825    7.76915598860412   -0.19680102313816
F         6.55359989298989    7.45031502389087    1.88259297277698
F         7.34595527706279    6.11998711287359    0.38797733002975
F         8.26097993212895    6.24097782517344    2.33816041996892
C        11.06080685853225    7.25114602978131    2.44454804799852
C        11.52991583430510    6.50217274037039    1.18115137081626
F        12.14163914277639    7.86698713507974    2.98663024303327
F        10.67391452714245    6.33038146745327    3.35798464392759
F        12.58204083630621    5.73059639045579    1.42920472344822
F        11.88041125047331    7.36800708196901    0.22816773358652
F        10.55837420915710    5.72551078220236    0.70553428534192
C         8.40795286663368   12.99223258440748    3.23141678524029
C         7.74249017568946   13.35407149957381    4.57055833753985
F         9.02807958356480   14.05495006568928    2.68104219914665
F         7.45264973975382   12.62394883255982    2.34814931926546
F         8.60724884682433   13.05877568192973    5.56007770784837
F         7.39216674697648   14.62119926510307    4.69781246224132
F         6.67165454566033   12.59302534778576    4.77309835780030
C        11.09408014486669   12.22326204006145    4.25109768592538
C        11.56904107831349   13.67419366426710    4.01698197170725
F        12.06902361886198   11.39929778258785    3.77709677300429
F        11.06349320748281   12.01864550584420    5.58539118768241
F        11.68176595568132   13.93400381811022    2.71354776010205
F        12.76108226619528   13.88044829824389    4.56798099705225
F        10.72013478731616   14.54967857714658    4.54871860005635
H        10.71344313293067    9.69503002204877    0.42269934074817
H        11.69364717588552    9.89800628543354    1.88810868827655
H        10.74713715557729   12.09047460296336    1.44525430065685
H         9.13916618753212   11.39855995109948    1.13322517005350
H        11.26012971327449    9.33977233598052    5.52778853763879
H        10.31598950135517    7.80844378527988    5.42113253203945
H         9.41737832305785   10.45017972529432    6.68980617276195
H         8.34984555443180    7.11114766959792    5.13405630661168
H         6.01900734970084    6.57335939772845    4.66618818072979
H         4.21012659689687    7.90767788072028    5.66491215649203
H         4.74108147043409    9.86857022010323    7.05907048139941
H         7.07777938140904   10.57347083265396    7.37113664181344

