71
CSD_code = KOXWOJ | q = 0 | S = 0 | Stoichiometry = C30H36Cl2O2Ti | MND = 12
Ti        1.69551006086603    6.60196992834818    5.64260301757301
Cl        3.76561792878301    5.81593514742955    5.52427271347175
Cl        1.02514970929499    4.66485067362588    6.55890167980661
C         0.50946267466787    8.19037113066069    6.74240271819295
C         1.01429855887943    7.32879668914450    7.74914637725619
C         2.42405915338511    7.44392041818161    7.80199284109074
C         2.79866581947393    8.39691449738506    6.82539977581240
C         1.63339371830510    8.87255179132689    6.19984535762425
C         3.29651474086727    6.86196960903798    8.89733765481117
C         3.16130995052084    5.33874343815523    8.98667138194608
C         4.77257019847333    7.22695543790166    8.68582717540517
C         2.81036565035519    7.49962700840544   10.17511398850699
C         2.37536414281910    9.19351799051108   11.46383651406618
C         1.98354015385729    8.09213718088338   12.15533035719257
C         2.26370754431247    6.98604062990382   11.31418150947883
C        -0.94967015967723    8.38955361644933    6.36616977550774
C        -1.77608792814982    7.28405983806033    7.04098111978287
C        -1.42413627203393    9.73189588510220    6.94582516239783
C        -1.08683987166389    8.32489447300121    4.78955112730526
C        -0.95202572719344    9.70795172514955    4.12932314606185
C        -2.45520955677975    7.78917149150062    4.33604690363745
C        -0.00467396701214    7.40322075926933    4.25514210478266
C         1.22036574056384    7.79917819562421    3.65554370002089
C         1.93407135753662    6.65190681492089    3.24153782082443
C         1.16315952728763    5.52871063498259    3.61998608090578
C        -0.03147937266276    5.99318515568374    4.22365801363812
C         3.11606417498994    6.69620221856343    2.29230351417376
C         4.17309001572464    7.70451441807711    2.75679646760515
C         3.75698123863312    5.31323837366521    2.11581659585212
C         2.53239493585046    7.13322148784548    0.97031163372410
C         1.19151608443454    6.93356035296812   -0.72641349106745
C         1.88094603167793    8.08529599067037   -0.93382786924155
C         2.75407315954855    8.21903943169838    0.17483707631923
O         2.87459764370498    8.84654383022261   10.26559647630128
O         1.57691784671434    6.35247562437522    0.42139802332386
H         0.43279362354192    6.74427839999291    8.44681644648199
H         3.79461736131052    8.78229415157711    6.65562183675448
H         1.61517862651126    9.72470660995043    5.53757887277470
H         2.12631934571847    5.04213700595899    9.13710206405999
H         3.52094045858412    4.88607359267628    8.06393130515018
H         3.75839954799724    4.96135084489859    9.81359986681832
H         4.90944581308037    8.30516676429974    8.71801358880422
H         5.37439287509599    6.78104200094566    9.47468916757009
H         5.11562773164213    6.84501463400220    7.72678246485016
H         2.35611799626784   10.23812254577262   11.70354898360745
H         1.55189434856232    8.06193357337643   13.13473635543956
H         2.08351418864684    5.95543321195373   11.53857262326488
H        -1.67097360955845    7.36073546527352    8.12094198535068
H        -2.83215256901293    7.39427357364642    6.81467713009900
H        -1.43964451194166    6.29340125094739    6.73366228420310
H        -1.35771660633769    9.69455013804654    8.03135884113284
H        -0.80956193916098   10.56001066783985    6.60684702146265
H        -2.45945411977249    9.92451461027601    6.67487535135862
H        -0.88905146663202    9.58313796981087    3.04974894338972
H        -1.82785410280908   10.31448227117123    4.34361033379279
H        -0.07591041810566   10.25545928584448    4.45975508734578
H        -2.49886185745192    7.81414475100576    3.24883724070083
H        -2.62834887333598    6.76618469490748    4.65062506491593
H        -3.25767493838651    8.41478376591714    4.72041630995267
H         1.48946306047432    8.80507031976878    3.37103570882084
H         1.37839953414432    4.49259906336262    3.39204090793279
H        -0.85254871594646    5.35101886544108    4.51192983774076
H         4.99058308684864    7.73909947489823    2.04083220375701
H         3.75305127179737    8.70344094053416    2.84828859776025
H         4.56838686741894    7.39741124204661    3.72317384273559
H         3.04627497714037    4.61800794664329    1.67595773395702
H         4.61640283467472    5.38999394999371    1.45328772180963
H         4.08917142372080    4.92915617753138    3.07720585041453
H         0.43340247140703    6.43626344377187   -1.29813356310925
H         1.78695629370847    8.75592171672374   -1.76322285761749
H         3.45203508380161    9.01336319046179    0.34010840242933

