34
CSD_code = KOYCIK | q = 0 | S = 0 | Stoichiometry = C12H16AuClN2OS | MND = 2
Au        1.56695210397347   -0.00234124791974    2.73562104555620
S         1.69655613841834   -0.74298615733684    0.50158537677152
Cl        1.86740614043619    0.38893542877202    4.94918703502996
O         5.92669850912747   -1.06848647182572    1.06764587227248
N         3.82895270739104   -1.73663186352133    1.69661200305982
N         3.60100945037490   -2.18509319243034   -0.60323485045567
C         5.42011536466260   -1.15291245929434    3.39296035350990
C         4.71914140626771   -1.83109558498366    4.38996613538756
C         4.98863744885964   -1.57093438620578    5.71929809607080
C         5.95005652240162   -0.63542837361168    6.06671808235417
C         6.66717814749712    0.02368713787412    5.08145407327840
C         6.40928282831630   -0.23689162475209    3.75001283384406
C         5.14466914460140   -1.31612974947708    1.95209793601369
C         3.15332023856983   -1.61435793101933    0.50220239878597
C         2.88337924092174   -2.00507545884857   -1.85360279693122
C         1.72900048353335   -2.99140310138714   -2.00273758425252
C         4.65899681442957   -3.18336313549005   -0.62018818470968
C         5.89134638686806   -2.74674225881925   -1.40496902833261
H         3.20622630231510   -1.56441962792508    2.49302878113039
H         3.97878148092158   -2.57746737677966    4.13951823934538
H         4.43477915180947   -2.08862120489311    6.48655074433567
H         6.13907753606375   -0.42021374707500    7.10741290307216
H         7.42054463551668    0.74844326176544    5.35069057966284
H         6.94763815148873    0.27481671775006    2.96636971873384
H         2.49789018740869   -0.98454445336943   -1.88620037043017
H         3.59602642686515   -2.13708540699183   -2.66759546832399
H         1.23385754875460   -2.82408340412862   -2.95450814073327
H         1.00370812288900   -2.84767339228538   -1.20726359892454
H         2.08490746985516   -4.01843602196838   -1.97399368611478
H         4.94399791279453   -3.41125208145711    0.40647138591525
H         4.23869371422102   -4.08981006697169   -1.06957127237008
H         6.64464104468203   -3.52651260669937   -1.33662450100269
H         6.29734067173353   -1.83451045656884   -0.97999946746919
H         5.66389056591371   -2.58357970186711   -2.45491464404728

