42
CSD_code = KOYDOR | q = 0 | S = 0 | Stoichiometry = C12H22As2MoO4Si | MND = 6
Mo       10.74464034933420    6.13402915024043   13.18601778724427
As       12.51534061327214    6.73532037890977   14.81777298872382
As       11.86112524943383    4.01577361734150   12.48396750790159
Si       13.97793445937396    5.01875422208114   15.41269093698915
C         9.79083251272442    7.75587624084852   13.64582613296295
C        11.71633206724401    7.09949928063579   11.79515456854667
C         9.35280307855525    5.66854594058855   11.92148933159574
C         9.82520288910090    5.14553099521248   14.59672958408958
C        13.42194048437382    3.12854945703911   13.29529889140353
C        14.47829400620321    4.11922334339256   13.78246708867904
C        13.73843081633878    8.18833583676628   14.37748903878059
C        11.91331872268471    7.37118568150806   16.55932538044124
C        12.44514059069288    4.03652484450342   10.62839768996816
C        10.68199180460960    2.47080086180569   12.39884234324973
C        15.57148044901804    5.63864849419160   16.27429885073973
C        13.00591115113031    3.83206880322257   16.56189856912570
O         9.21500741592501    8.71151123424584   13.90191357402676
O        12.29193359766776    7.67122072289835   10.98606604686267
O         8.52527689082353    5.40893180322611   11.17310004845748
O         9.29390010441067    4.55589120844550   15.42467497648070
H        13.84185688265946    2.46369054746929   12.52665816761113
H        13.07804427692173    2.49690441919898   14.12032246688054
H        15.43379603131344    3.60414796871427   13.91106233993691
H        14.63101246495833    4.88162824759829   13.00432958081785
H        14.41918160150897    8.40431644225824   15.20531173325993
H        14.32087300375443    7.93338450737453   13.48916179040703
H        13.15238449018823    9.08507854059792   14.15340347737411
H        12.75383266632845    7.59878819257003   17.22161208984324
H        11.31724835150156    8.27789820736368   16.41688281138262
H        11.27696362072188    6.61804372025341   17.02868346959982
H        12.74647987037174    3.03936630546729   10.29401668100920
H        11.61766194275268    4.39136734087019   10.00683998227386
H        13.28451103530190    4.72517865464695   10.50300370358364
H        11.21109989083474    1.58866352668370   12.02449274852015
H        10.27860227409614    2.25207348917156   13.39072156230359
H         9.84500884780361    2.69794157049667   11.73257304538582
H        16.16353989776854    4.81583583501788   16.65863290165845
H        16.19556384574308    6.20516968688654   15.58945500835451
H        15.32231048393514    6.28456060173121   17.11114077507450
H        13.49527505870340    2.87097499414826   16.69070950185003
H        12.88232701753679    4.27213904845139   17.54831681928249
H        12.01078919198557    3.65502603524203   16.15054800717110

