80
CSD_code = KOYDEJ | q = 0 | S = 0 | Stoichiometry = C27H48NOSi2Y | MND = 9
Y         1.52575260139140    1.88478271599562    3.67505450002951
Si        0.69425570206282   -1.72779258322785    3.96633485414600
Si        2.59379107634150    2.33306768476326    0.24793561900107
O        -0.66681364360824    3.31499186488354    2.78983992676678
N         3.84449189371189    0.87514664080458    4.62716941168905
C         2.15873389426907    2.71015892893894    6.05897281255445
C         2.61602992794745    3.96779368714422    5.57117284409879
C         1.50020000031465    4.79898005309573    5.39138425849372
C         0.34265520952619    4.09298492379687    5.78022285898554
C         0.72541244689468    2.79992647024777    6.18278272453966
C         4.04482993243069    4.38892901467051    5.38675639188614
H         4.72419195130842    3.54465481776717    5.49675049937408
H         4.31768025630930    5.14195207341365    6.13049986983883
H         4.20363399294776    4.83065235466568    4.40196852084466
C         1.59264973650165    6.21803266199719    4.91668853383228
H         2.26998899812597    6.78722350956588    5.55524356722704
H         0.62317904742958    6.71077833568667    4.93919064123133
H         1.98323585630433    6.26957535345127    3.89728361528159
C        -1.05096566635792    4.63738570452193    5.89320807768848
H        -1.78826584204773    3.91584745204403    5.54130515433381
H        -1.16913116010631    5.55464265737475    5.32021380867516
H        -1.28628603759269    4.86615103403957    6.93562657572298
C        -0.15649524490078    1.81325431384031    6.90239251918283
H        -0.13523538885307    2.00006100501861    7.98039777218115
H         0.15736648687044    0.78272548025167    6.73053230139551
H        -1.19185839425762    1.90965623059133    6.57711269558277
C         3.02764514885585    1.69863935551180    6.77042701371065
H         2.39243233426547    0.89749678966263    7.16393919015931
H         3.51137516124373    2.17234266847208    7.63307679254788
C         4.09550690350606    1.06318200202399    5.92488993802693
C         5.30670400932905    0.66686647147010    6.49488766111223
H         5.48035002160374    0.82913199896301    7.54807651305625
C         6.27105638678707    0.07459206572133    5.70424075644155
H         7.21420883058801   -0.23858316488895    6.12743834212496
C         6.00614822766887   -0.10345898757756    4.35285890390030
H         6.73309643785185   -0.55257105951588    3.69527194599225
C         4.78153370865069    0.31396090811803    3.86669004907604
H         4.53230203243132    0.20560222663542    2.81813542902469
C         0.08054591647544   -0.00932242087470    3.50032623063997
H        -0.80289022377613    0.20403018716803    4.11787622004648
H        -0.29354352916931   -0.06605154941533    2.46860783763901
C         2.77918819613002    3.00863372217183    1.99142455714883
H         2.50718706810252    4.07114157927255    2.00829432669113
H         3.84084509710031    2.97222499080298    2.26899081696864
C        -0.58271905378913    4.63680650271981    2.23550274655782
H         0.23495602251082    4.65694044842908    1.51124663604156
H        -0.36020007161508    5.33297879217586    3.05021666266419
C        -1.93986315785693    4.93755798617714    1.60386824419390
H        -2.17440568092157    5.99910896820116    1.61893388697360
H        -1.96741374286942    4.58280796087151    0.57294078479350
C        -2.87632456942005    4.10269943336952    2.47192324453659
H        -3.81857747297033    3.86508110484728    1.98417946404193
H        -3.07921933197385    4.61716400090050    3.41134076681211
C        -2.02178230806661    2.86403772761401    2.71817495267280
H        -2.26395669678885    2.34817674432441    3.65035520355659
H        -2.12194455559830    2.15479525574336    1.88476724136271
C         0.75369332851291    2.32130012191827   -0.29678189193749
H         0.60643524138362    1.68678430073801   -1.16537546621055
H         0.40934027643536    3.31579471772911   -0.56362288320932
H         0.11653886431135    1.94476605250765    0.50021961286259
C         3.18907962059680    0.51139544074050    0.22066754088271
H         2.98865043472764    0.04221299282582   -0.73750029096512
H         2.68428677516350   -0.07257624778030    0.98762491151780
H         4.25973865264994    0.44445781858201    0.39049540795664
C         3.56077512744757    3.25722390571864   -1.13060252945414
H         4.62842212027545    3.24153106749608   -0.93401225978166
H         3.25855148233903    4.29829668006226   -1.19476167780565
H         3.40155331326753    2.80967645664478   -2.10715169152719
C        -0.66804906214324   -3.08174738450377    3.93692308727049
H        -1.47602310446530   -2.84022690652891    4.62108459441372
H        -0.28012612332912   -4.05542480944082    4.22112578667687
H        -1.10026567349908   -3.17896740953923    2.94572487371429
C         1.44057770012980   -1.77121112164402    5.73227290648415
H         2.29631068103763   -1.10703577125012    5.81426779285797
H         1.77929155195803   -2.77141264284327    5.98487109928679
H         0.71182479617533   -1.48136355274578    6.48302987026165
C         2.07737091975298   -2.32100360402535    2.78233111251810
H         1.75988621995332   -2.27044761945659    1.74585751538572
H         2.35004462796792   -3.35163585605309    2.98749613889422
H         2.97482348857015   -1.71856172312242    2.88877372600962

