80
CSD_code = KOYDOT | q = 0 | S = 0 | Stoichiometry = C31H44NOSi2Y | MND = 9
Y         0.77978856574052    9.29472666931485   19.28557025213139
Si        2.99868161421491    6.61024153552965   20.18686904361339
Si       -0.41305189801670   10.62875675939152   22.40742097840550
C         0.76597595706013    9.90121340215067   15.67473239441982
N        -1.60793985647548    8.04047437933438   19.36700437150663
C        -0.80591212648202   10.04122529468868   17.40951537832593
C        -2.23271276939535    9.88410089770498   17.91014690039707
H        -2.43505184750069   10.66582712810925   18.65243272702339
H        -2.93539067898088   10.03462803508880   17.08003091649392
C        -0.24041867467279    9.18076128640006   16.39175290107411
C         1.48912833073708    9.27915611264254   14.66307346415475
H         2.24840543677328    9.82368157708957   14.11699640835822
C        -2.52902933346010    8.55824354753969   18.54879129895243
C         1.81080995928214    7.20377963452288   18.85387086833784
H         1.05182304576471    6.43166683707047   18.67738428906099
H         2.34685403780248    7.30479266551409   17.90147010350194
C         1.21122242193546    7.96530523245727   14.34606054692251
H         1.76429572664597    7.47062964477831   13.56050915367453
C        -0.43952663737114   12.58036827884407   17.81464257946910
H        -1.19813827456217   12.68601363138037   18.58119050985548
C         1.50796874573384   12.36651311104410   15.79043183452603
H         2.23793129496864   12.29695240995960   14.99463147043801
C         0.78267758633644   11.24546907770066   16.17465256411444
C        -0.20121976033339   11.33933043077397   17.20998452270393
C        -0.52108526300867    7.85731931084054   16.02998418302682
H        -1.30523439706969    7.30132472623662   16.53038119846062
C        -1.85587773217499    6.87434176035822   19.95720833320659
H        -1.07263070221894    6.49524075109369   20.60287957197958
C         0.20554734600853    7.26804366002492   15.01825352912472
H        -0.00660298945136    6.24690947143924   14.73329369539650
C        -3.73850158477153    7.90564975247443   18.31171746874102
H        -4.46378541764647    8.34601300649430   17.64443214218846
C        -3.99276785018550    6.69667468850593   18.93041299490670
H        -4.92266843047151    6.17556854005629   18.75670445962892
C         0.29582903701297   13.67562143484444   17.41562780611547
H         0.11554731220546   14.63738739453361   17.87604073088758
C         3.74572309851055    8.12719948402429   21.10163992050931
H         4.15279845035541    8.84834821674094   20.39650493356830
H         4.55211199895238    7.83726820242134   21.76955089935795
H         2.99022240419885    8.63496187774199   21.70064326201732
C        -3.02826571743186    6.16446418123477   19.77472046576783
H        -3.18152799509549    5.22193812647231   20.27525830623070
C         4.47811150634566    5.55942274285467   19.56207951418843
H         4.13328145362665    4.66191726074294   19.05835096024569
H         5.12930148518907    5.25010768336142   20.37405834162148
H         5.08240038354145    6.11716490214722   18.85257233761962
C         3.46010058343968   11.80217474094047   18.65758990050579
H         2.59177641242234   12.46481406617488   18.63293923305911
H         3.86615020977785   11.77117030428763   19.67782777242451
C         2.07459920066847    5.55805169305688   21.49511705089247
H         1.28730514202868    6.12783401374582   21.97977159537057
H         2.74911371802347    5.21144898893467   22.27126552763440
H         1.62064448980116    4.68227304446928   21.04243413040436
C         3.97063283353929    9.92067890386278   17.36412337446688
H         3.49355032810857    9.87640121013575   16.37821732073528
H         4.21425835711454    8.90515199699601   17.68855295588333
C         1.26611636324735   13.57367416822395   16.41544345965038
H         1.81800855290676   14.45610718948972   16.12317258484432
O         3.03231812914287   10.48157188122622   18.29475999659590
C         0.78609426613482   10.95449565617720   20.99694688012008
H         1.79737042307254   11.04528628856888   21.41281037869883
H         0.56270686086014   11.93177444495761   20.55146776588535
C        -2.22003617058632   10.69491375174552   21.76717744490849
H        -2.40457470836211   11.60956300018250   21.21203971727959
H        -2.93038306021346   10.66786355543770   22.58750070314729
H        -2.44060425373206    9.85414155431110   21.11527136857758
C        -0.31809699568377   11.81634558243979   23.91081801799961
H         0.67973391800143   11.82485364496657   24.33840363968964
H        -1.00870179113797   11.52907530184238   24.69819906238801
H        -0.55651777889617   12.83511219581283   23.62126148113301
C        -0.09536050020106    8.85598779747359   23.07104737393632
H        -0.90184812321415    8.51579237136586   23.71393787388735
H         0.82048147394897    8.81519194473780   23.65276774208755
H         0.00163793859842    8.14555576192440   22.24852752914385
C         4.53822020015020   12.19803368837292   17.65538021777362
H         4.07675694773557   12.60930422369808   16.75839984071004
H         5.23599453456767   12.92398686028006   18.06548833850436
C         5.18213897744884   10.84867427599074   17.35120376853583
H         5.88066463732636   10.57544239045405   18.14333464216259
H         5.70415162168416   10.82800875410360   16.39792077867498

