42
CSD_code = KOYDUX | q = 0 | S = 0 | Stoichiometry = C12H22AsMoO4PSi | MND = 6
Mo        6.91366145313333    4.89285137278690   -2.58465161075494
As        6.18190587460496    2.55012417913081   -2.15658674180643
P         9.24648969487502    4.41131712560070   -2.25185482002549
Si        9.73315184762038    2.41480832798594   -1.31777807168824
C         7.35473134282697    6.74024082358072   -2.96411761040935
C         6.73932382136235    5.29525553894807   -0.68183684173198
C         7.08539268668071    4.45685774569100   -4.48059510665776
C         5.02744991801746    5.28226021492881   -2.83540620847127
C         7.28921815985725    0.97152337851576   -1.75047529678848
C         8.70883978301137    1.11519654949684   -2.29399511135524
C         5.17452488350444    1.82761844650922   -3.65281911140395
C         4.83299466984459    2.32895706225237   -0.77328336833442
C        10.14141774127867    5.58137233724558   -1.16897510735692
C        10.32990941049622    4.44319453904060   -3.72511986726595
C         9.14401237741210    2.53417063810442    0.49747122587192
C        11.59027481404475    1.97723409076380   -1.41620246792633
O         7.58989024438648    7.83528202074589   -3.19586815072257
O         6.61574550902854    5.53518068040756    0.43114840592528
O         7.17512292533873    4.20442058707620   -5.59327284356748
O         3.91634826529528    5.51719859534655   -2.98591040678267
H         6.79266083574741    0.10059601311791   -2.20015305024307
H         7.30829156974739    0.81550494096632   -0.66757218724364
H         9.21336495927385    0.14564162317545   -2.27809868877504
H         8.64954428456245    1.42749927075744   -3.34476264810187
H         4.69207070138337    0.88169309988304   -3.38887753133237
H         4.41023089577942    2.55162698068531   -3.94944092176090
H         5.83834492502418    1.66379791063933   -4.50590718970231
H         4.49410582169495    1.28983400655134   -0.71724275878127
H         5.23188236411994    2.62756721892326    0.19933758149611
H         3.98080109957027    2.97434083201017   -1.00524714622543
H        11.18861430315684    5.29691285240016   -1.05787948813877
H        10.07605054112624    6.57771101395206   -1.61049353561479
H         9.65799196297392    5.60193638195226   -0.19287784023073
H        11.37227796303359    4.28164042425796   -3.44815404677924
H        10.01023802414699    3.67050617991164   -4.42427315590394
H        10.22399674379400    5.41638027843814   -4.20876043952867
H         9.11832598970462    1.56269961213968    0.98249388668128
H         9.79697372101164    3.17447746203513    1.08343279686928
H         8.14020232148938    2.95984806537983    0.53297581608368
H        11.79944207021665    1.07758309457999   -0.84861163244962
H        11.90764296957150    1.80443773080770   -2.43911945736468
H        12.20114051025170    2.77370075328699   -1.00563925170269

