28
CSD_code = KOYGEK | q = 0 | S = 0 | Stoichiometry = C9H12Cl2N4Zn | MND = 4
Zn        7.30727226836803    0.81832045444775    5.09528701779229
Cl        5.49196509139174    2.04661810461552    4.96901479456818
Cl        8.78692959191038    0.06981586160420    3.67064088178023
N         7.09324648515291   -0.99234192519289    7.62145278106069
N         6.87085055755858   -0.88384022700284    6.30793438985654
C         6.71064196433814   -2.10558493085466    5.83684296658605
C         6.82165597207558   -3.03816818972681    6.86933519217876
C         7.06878033353928   -2.28801164983835    7.99419557303085
C         7.28900516110400    0.19802674310940    8.44445716134752
C         6.06913720658808    1.11402219300092    8.32005587697154
C         7.47806509264707   -0.20346999629197    9.90606384434042
N         8.47694361742497    0.89563055569226    7.96270650778138
N         8.49619606451739    1.45768706289986    6.74940545509115
C         9.67758439788729    2.02663663445898    6.60246114650653
C        10.44941421114750    1.83927669016753    7.75005013859242
C         9.64916881873230    1.10834957939060    8.59495855822520
H         6.52867014654630   -2.26527084679871    4.79249831432258
H         6.73645143997456   -4.10237617810870    6.80272788248911
H         7.21721669855728   -2.60921094498321    9.00333772589168
H         5.89061910894027    1.41438632290366    7.29003601949083
H         6.22225897727030    2.00920059286141    8.91668724204438
H         5.18551975314621    0.59576344290918    8.68275628449695
H         7.63565391320279    0.68852986524083   10.50671389921809
H         6.57657857229147   -0.69224645837262   10.26590041000235
H         8.32264690733216   -0.87509113018029   10.03856057125867
H         9.92446482391297    2.53776928610623    5.69307597545938
H        11.44576152739661    2.18308962363727    7.93267371568319
H         9.85570129704592    0.74928946430507    9.58086967393302

