101
CSD_code = KOYXAZ | q = 0 | S = 0 | Stoichiometry = C50H45NO3SiZn | MND = 4
Zn        0.86408844106716    7.43555770521277    3.77290971428972
C         0.28368870567863    9.05322851371259    2.73019266715640
H         0.62809230433803    8.98031775070211    1.69790747342656
H        -0.80560881981668    9.06521537635231    2.68592966369875
C         0.73585516413230   10.40433149180928    3.28551525886838
H         0.35645456666718   10.55619140736180    4.29304905212647
H         0.35848248010020   11.21392089536591    2.65706760517910
H         1.82001259448686   10.48066970059571    3.31225127324277
O         0.14554511290730    5.55679038131485    2.62199393420478
C        -1.27184794746167    5.57642541834834    2.53265001783875
H        -1.54821950085242    6.38577791248698    1.85693346811403
H        -1.69448605577452    5.76439212979575    3.52555045150950
C        -1.67137321471058    4.18209989570090    2.03230429066709
H        -2.60810666119118    3.86261015504518    2.48355176369758
H        -1.78642118941812    4.17736052934307    0.94884930517301
C        -0.49080488311026    3.29694263549960    2.46364771694584
H        -0.80105282751403    2.51145117202804    3.14869225135526
H        -0.01172871386555    2.83717195111527    1.60014420242198
C         0.46211017859463    4.28081705494291    3.15589982279012
H         0.28491627905260    4.28344054158339    4.23802904176491
H         1.51555743176593    4.08753522852700    2.95367005355536
N         2.70544076150320    6.56089568248840    4.42290831782038
C         3.48347802981303    6.10028837450198    3.43592338205399
C         4.40055406107029    5.07928533587932    3.62429880978133
H         5.01995802584795    4.75131770859461    2.80590177160024
C         4.48759988095559    4.49081962197956    4.88043377898679
H         5.16742326459636    3.66903470102029    5.05327863463861
C         3.69394125519590    4.96940518691040    5.89612615630857
H         3.71681550329431    4.52099834587399    6.87692455866168
C         2.81203767591979    6.03809587726980    5.65376864201042
C         3.35214296493369    6.77178817593794    2.13121614976890
C         3.49338256897207    8.13264862377706    2.04910967624313
H         3.71841264718127    8.69477511063656    2.94425510920612
C         3.38610335662956    8.81403124742204    0.82066463991264
C         3.54059811960603   10.21059579332690    0.71573381152714
H         3.75990745476416   10.77741653800137    1.60859685885642
C         3.41103479497896   10.83737716078707   -0.49252516441543
H         3.52677447949000   11.90844774073607   -0.56735097238884
C         3.12652551215209   10.09319591580062   -1.64728450321642
H         3.02701763853486   10.60256389474809   -2.59466726777928
C         2.97748510347085    8.73551402206513   -1.57729872976152
H         2.76081487650815    8.16154529842861   -2.46729139479252
C         3.10365826953528    8.06027368284818   -0.34643554073935
C         2.96251539331187    6.65998459500941   -0.24961652094418
H         2.74931503576629    6.11491835184140   -1.15628966461368
C         3.09662806578597    6.01504966413140    0.95242227419441
O         2.99192684361659    4.66724716832160    1.12935113686601
C         2.62064527515273    3.87673901986133    0.02707329046627
H         1.64593941215855    4.17830648843371   -0.36866697273289
H         2.56151827890532    2.85582119838780    0.40250390813410
H         3.36837107560032    3.92223896282919   -0.77151640035069
O        -0.01571471987061    6.68949473132694    5.34768043511957
C         0.58404045924681    6.70451645393506    6.49939649574677
C         1.95231369684902    6.51287772030025    6.72591708974282
C         2.45199729692953    6.65648531406652    8.05689904814567
C         3.83222916343314    6.71033888878082    8.34100058924167
H         4.54058910315793    6.66081943495705    7.52619722912298
C         4.29280052487866    6.86241726097938    9.62226131406205
H         5.35634552053089    6.90506262683145    9.81018275129655
C         3.39839383418266    6.97716775426897   10.69161283179590
H         3.77510717378300    7.08666708007809   11.69796464707748
C         2.05141949990896    6.97565329540205   10.44636346416771
H         1.34550462047884    7.09645589025883   11.25634370290669
C         1.55051458569495    6.83503485474994    9.14037336521073
C         0.15750787837212    6.87075286800640    8.88198000112708
H        -0.52914409508417    6.95140880190055    9.71393789614521
C        -0.30691877006235    6.82413183322932    7.60802792294412
Si       -2.06690907808472    6.83041507597786    6.93165218350279
C        -2.37595776358957    8.33465541861547    5.82317600219827
C        -1.91233782149006    9.57820821709092    6.24353351976475
H        -1.36760194372622    9.64976129483511    7.17499587285127
C        -2.13822362434873   10.71864866684664    5.49482276903210
H        -1.77445131009513   11.67576714784835    5.84269774737476
C        -2.83439376534161   10.63657799741194    4.30061403688017
H        -3.01417529642133   11.52579570737558    3.71343569442574
C        -3.29329724919245    9.40660099690073    3.86240210430424
H        -3.83452637863939    9.33389816904687    2.92868429931379
C        -3.06540891297260    8.26992399599044    4.61875009115529
H        -3.43168972826479    7.31795874724913    4.26325861659002
C        -2.46841412457549    5.13732827876420    6.16852988320486
C        -1.55035544387060    4.09441457765228    6.22564461782371
H        -0.58848122278020    4.26514224590448    6.68835772826697
C        -1.84874648607552    2.84494845717578    5.71158503563871
H        -1.12197903134197    2.04595424503428    5.77704828890852
C        -3.08050894751318    2.61408399740609    5.12229948561653
H        -3.31683261307959    1.63985076734879    4.71712708482360
C        -4.01320362136098    3.63625002896338    5.06828509526698
H        -4.98249984200638    3.45927113450399    4.62271637474876
C        -3.70970293856293    4.87925673841919    5.59540969354376
H        -4.45552709423075    5.66115189948706    5.57491249115183
C        -3.26224683624191    6.96306637372716    8.40786164586617
C        -4.12486581027093    8.04076713198843    8.56640698669636
H        -4.11598176002515    8.83438519750638    7.83263726895109
C        -4.99160130511792    8.11373164437581    9.64268727094507
H        -5.65427741948031    8.96161071359162    9.74696744175642
C        -5.01091537260232    7.10134293316159   10.58652372065596
H        -5.68525644386220    7.15620272518273   11.42941936470861
C        -4.16200385957201    6.01633910331823   10.44331129942958
H        -4.17422423281018    5.22085778066134   11.17560442540365
C        -3.30117810467928    5.95178375761241    9.36321145901061
H        -2.64512946041940    5.09939668922378    9.25190481315732

