82
CSD_code = KOYXIH | q = 0 | S = 0 | Stoichiometry = C42H35NO2SiZn | MND = 4
Zn       -4.07919992570669   -0.77265891011678   10.80394028638858
C        -5.86382970058555   -1.26723135887382   10.02184684414703
H        -6.31270602431072   -2.08118270388059   10.58971705510161
H        -6.55908580867873   -0.43083738075784   10.10289225391804
C        -5.82844021646852   -1.69826514175109    8.55367868724624
H        -5.47029140517398   -0.89479566729879    7.91168764375974
H        -6.83216272382505   -1.96689726862051    8.21796386884649
H        -5.18913210900397   -2.56802812811334    8.41829611017871
N        -3.37969746796937    1.04491861617897   11.53534375187672
C        -2.10351643720955    3.33903386314531   12.39325931455699
H        -1.59585229339739    4.23405946794220   12.72243224495059
O        -2.59558550831418   -0.17107975949858    9.15356496602678
C        -1.94893037686117   -1.17127439573022    8.39263353673850
H        -2.66699855889128   -1.79377037889308    7.85186513765055
H        -1.41935482895116   -1.78703436070924    9.11888975628976
H        -1.23557205830022   -0.72667833666200    7.69210308960609
C        -3.25700842110238    0.83909308353434    8.50953750588551
C        -3.54504943362719    0.82927671701423    7.15040060535747
H        -3.23042376163222    0.00300423822285    6.53298083870669
C        -4.25548369422482    1.87031260630393    6.57639930015499
H        -4.48006754830206    1.83886267157574    5.52110774656826
C        -4.67970329068478    2.93583168626357    7.34849840494627
H        -5.24461711880347    3.74038094676645    6.90426918703051
C        -4.36164207692493    2.97091378716057    8.69382381990891
H        -4.67832539555111    3.80627547643304    9.30042442447560
C        -3.64819938487839    1.93948774896803    9.29407065141373
C        -3.21610073121779    2.07428448949045   10.69945983177101
C        -2.61137348378877    3.25671376686774   11.10169414108143
H        -2.50004431604278    4.07337191684905   10.40639036248305
O        -2.69697910791257   -1.64232600391259   11.78583266380148
C        -2.68355144368898   -1.34715482387169   13.05156683659038
C        -2.92530235612473   -0.08737986662383   13.62066433133540
C        -2.89192624590241    1.09863752137085   12.78575672041752
C        -2.21972573682372    2.25361059445245   13.22825648883655
H        -1.77146012694858    2.26039553454699   14.20869179343942
C        -3.01508867179202    0.00113452169901   15.04654967077482
C        -3.52352378207383    1.14285545914502   15.69745066999078
H        -3.88471452876288    1.97070332651005   15.10392001680476
C        -3.61164923663305    1.20700085392386   17.06382310827875
H        -4.01114319734983    2.09313263203775   17.53618972658239
C        -3.20239649122439    0.12865969165457   17.85427833059374
H        -3.26532433636856    0.19626279420399   18.93034275447912
C        -2.75318253062859   -1.01626234627587   17.25196368277245
H        -2.46886775348760   -1.87369032611652   17.84580783907523
C        -2.66858561075574   -1.11614435821735   15.85242423382939
C        -2.25812938666377   -2.32200329320673   15.22888488717595
H        -1.95004102562534   -3.15460199096446   15.84654625281400
C        -2.28768492313420   -2.43888147841119   13.87772208215140
Si       -1.92030223525115   -3.89720131535927   12.73754896602818
C        -1.49100965132129   -5.38564036659997   13.84188014060378
C        -2.27304208389862   -6.53382732838137   13.87079075649119
H        -3.15928797808734   -6.58239353444316   13.25383245506997
C        -1.93610134453032   -7.61162083352317   14.67070836621555
H        -2.55879601156491   -8.49550228064471   14.67805135809409
C        -0.80095962303424   -7.55930037106745   15.46125198302554
H        -0.53527925031194   -8.39901344758341   16.08775573487392
C        -0.00587049343865   -6.42534760137681   15.44244884507778
H         0.88394215521262   -6.37970927976204   16.05505655164050
C        -0.35068957135360   -5.35429860616066   14.63875531775201
H         0.27637775962064   -4.47346988618774   14.62202462659764
C        -0.39738898363827   -3.65690774494920   11.62975477030978
C         0.15456825324220   -4.76525072806191   10.99225581277687
H        -0.28199056211562   -5.73974962530509   11.16113232294525
C         1.25100334934318   -4.64185765298229   10.15831008684241
H         1.66251448880606   -5.51521765658889    9.67200548666247
C         1.82438145485971   -3.39858332441207    9.94917742561952
H         2.68138953654839   -3.29749816607332    9.29824813226904
C         1.29760351859659   -2.28763719229140   10.58575746847247
H         1.74644202376675   -1.31535369515646   10.43390071410391
C         0.19962142872364   -2.41959501625062   11.41828764304038
H        -0.20499189283639   -1.54712753576415   11.90811690647081
C        -3.45008015056924   -4.35563873569443   11.71463015595035
C        -3.36708811585505   -4.64613168103701   10.35751756465510
H        -2.40349104833930   -4.61522356532258    9.86835678106525
C        -4.49445961135816   -4.98087921681096    9.62831306586291
H        -4.40823705924385   -5.21532961419673    8.57546701192735
C        -5.73313845070691   -5.02487139031972   10.24531648181812
H        -6.61482105718588   -5.28655443715616    9.67764445808180
C        -5.83547942932001   -4.72575734530362   11.59343515658367
H        -6.80036147335691   -4.75371495062737   12.08100205429932
C        -4.70368147270328   -4.39506231393042   12.31706360510864
H        -4.79062582636332   -4.16506929443372   13.37035833684995

