34
CSD_code = KOYZIJ | q = 0 | S = 0 | Stoichiometry = C15H12ClCuN3OP | MND = 4
Cu        4.95808134958191    7.77530276247703   17.93988928857366
Cl        3.93407991414957    8.20240839747213   19.83408389361206
P         6.34749671879569    7.21769058759805   15.41163184630174
O         7.03850114526964    6.93952447415163   14.15244786841324
N         4.57934381383425    6.03560756712716   17.11036246560792
C         3.78021645592541    5.06759081044625   17.53792800079410
H         3.26268118491758    5.26439194764330   18.46669178598428
C         7.46100771433891    7.51446127293894   16.82300032173202
N         6.92278629231034    7.77651030804905   18.01190272589457
C         5.15910152485946    4.72120074779636   15.20570030911941
H         5.73171977585052    4.64891611364828   14.29327188057078
C         4.32640589470826    3.70672467890278   15.64732125295901
H         4.22450571830968    2.79380188100008   15.07964918981412
C         9.09383688074312    7.95845958994003   18.94085373891296
H         9.71113343399933    8.14063795120970   19.80600536516029
N         4.60272358168718    9.02275202564129   16.46334120198794
C         9.66502742709557    7.68441186716920   17.70238643078560
H        10.73806332394252    7.64906990087865   17.58721567907571
C         5.25410450022650    5.87314137806123   15.97427628275143
C         5.27225533131101    8.68789216418574   15.36256275959220
C         5.18255168879404    9.41345592933897   14.18263229014742
H         5.75023688910621    9.09173830742274   13.32243005277835
C         3.66530851588373   10.87064185386466   15.31575431880018
H         3.01665084023835   11.73181857934362   15.33526034535541
C         3.62485823403268    3.88507745071952   16.83524135144316
H         2.96708668383263    3.11675704867192   17.20927907397728
C         7.71451592824663    7.99512088338847   19.05271400066177
H         7.21140969092979    8.20216121615299   19.98720479084070
C         8.83281130568538    7.45741042867346   16.61905951747595
H         9.20953904262770    7.23943408943606   15.63096436593180
C         3.81477071538654   10.08907519365927   16.44850514993563
H         3.30163866875209   10.30382755924038   17.37575425376001
C         4.36106019735398   10.52808053541149   14.16089097336787
H         4.26308961727384   11.12040449833964   13.26338722788132

