63
CSD_code = KOZLOC | q = 1 | S = 0 | Stoichiometry = C30H26CuN4S2(1+) | MND = 4
Cu        2.95299739697755    6.09031270764234   10.66192540173093
C         1.04468391250818    8.55535879550266   10.93548250754864
H         0.36391193965425    7.71065633012736   10.93856913072374
H         1.31531917798611    8.82039587403747    9.91838799754552
H         0.60781401752993    9.40995117083060   11.44273931342592
S         2.59858470296228    8.11109036450038   11.78736182691654
C         1.93982561738580    7.66966741743309   13.39668596500656
C         1.18003168124035    6.51980898068061   13.66633418743033
C         0.89405254632028    5.42866626173749   12.77017890104269
H         0.32280409048184    4.61172656586263   13.21349602145705
N         1.25981877214534    5.31251443063625   11.54256522020134
N         0.89504573756488    4.28332601339497   10.79423710589884
C         1.48585930801826    3.14659529055567   10.77021144690010
C         2.66919963006960    2.92416366650078   11.65972809950781
N         3.77356381651202    3.53001524543252   11.43952973256982
N         4.02939219084491    4.40134046168656   10.47996267044719
C         4.78521420481872    4.10262178404700    9.48327822054379
H         5.13039444263366    3.07428418944342    9.37761010351546
C         5.31537267374584    5.04736179383320    8.51420725700400
C         4.64551370735442    6.15608981915238    7.98354692820497
S         2.92326844106824    6.53278467061582    8.33781008549386
C         2.12833935777503    5.06093857808914    7.61331012522931
H         2.27610687085094    5.08241005026685    6.53808098905439
H         1.07155400841116    5.12853074339164    7.84886530137564
H         2.54884172578962    4.15531112066205    8.03935467458178
C         1.07316226255116    2.12151113260958    9.82707473389104
C        -0.06652023390915    2.30268544832703    9.03851000092827
H        -0.63873306833180    3.21049705737959    9.15172592156914
C        -0.45136973076067    1.32687279994337    8.14226026551613
H        -1.33478162176890    1.46934446797613    7.53912184259655
C         0.29213589973069    0.16176677228957    8.01894812700100
H        -0.01265188672676   -0.60103534875005    7.31945460183349
C         1.42451746129658   -0.02513587053963    8.79638957401140
H         2.00170732621998   -0.93200890024062    8.70208248615661
C         1.81709910022278    0.94621032420461    9.69677196878450
H         2.69832639821883    0.79628681801898   10.30445052640796
C         2.52360214488398    2.09141712340045   12.84333323707544
C         1.30706092444455    1.46395185775777   13.12411301493857
H         0.46637336344628    1.58803041012233   12.45625808733181
C         1.17717132980424    0.67987791289497   14.25406897965403
H         0.23557387094845    0.19586977865650   14.46352673852880
C         2.25094107563803    0.51281204815845   15.11469914488837
H         2.14522657585342   -0.10253194459412   15.99469986543690
C         3.46126008406747    1.13489743354162   14.84382327135453
H         4.29693915722266    1.00431611421806   15.51395345377865
C         3.60089624837217    1.91873897489292   13.71706400080819
H         4.53583442617402    2.40797220564191   13.49261926142102
C         2.22253153403772    8.57902139215545   14.40518124620804
H         2.82149770754825    9.44346617504016   14.16481997332627
C         1.74115886651323    8.39522522640315   15.68839422163530
H         1.96522891394290    9.11676485426192   16.45771356490710
C         0.95878193981765    7.28496633066556   15.96832876881834
H         0.56291769988444    7.13346624495942   16.96015776899825
C         0.69168163903366    6.36785737640309   14.97538775837376
H         0.09236970328042    5.49867268731668   15.20303214855400
C         6.61551633709075    4.79810867254716    8.05997574934592
H         7.13885706645689    3.93366569593698    8.44040186534574
C         7.24710859664470    5.64707072969984    7.17278301596577
H         8.25612940645688    5.43573465510751    6.85569760523405
C         6.58073605620423    6.76073172758566    6.68880040999713
H         7.06321295914545    7.42947786430118    5.99405905797796
C         5.27564014441474    6.99955241029741    7.08390409466344
H         4.72945035129147    7.84324901534801    6.69195443337940

