45
CSD_code = KOZRIA | q = 0 | S = 0 | Stoichiometry = C21H17NO5Ru | MND = 9
Ru        2.39649323627815    4.05708354942440   15.06269229826431
O         3.24967049317275    0.82919722377577   14.32667353531111
O         4.32292843053411    0.69210419219655   16.29617076942998
O        -0.69316085550449    0.44499335455953   12.08402900613165
O        -0.13844664758308    0.28544290923047   14.25619601701658
O         4.48159774809825    3.19346054945975   13.09494113659757
N         0.83857630281493    3.51167481604060   10.92710228681947
C         2.33059135954816    6.20951295981156   14.50224485852425
C         3.31519501305817    6.02587011992001   15.53666485472460
C         2.64575516165978    5.57457271070272   16.69580546986248
C         1.26426851256159    5.44667717684500   16.38450788126632
C         1.06970645894449    5.87519222359207   15.04569258507898
C         1.23272571573347    2.60275961863547   14.20028995309768
C         1.19653050871840    2.35977450247805   15.59186823590671
C        -0.05679311785534    2.40128049441410   16.35661250057009
C        -1.19634839691662    3.01239601979229   15.82560575256607
C        -2.38849472059887    3.00178247952574   16.52166603705142
C        -2.47061587896443    2.37569435309932   17.75584190085695
C        -1.35192553662298    1.75474269769918   18.28493794460922
C        -0.15414701414622    1.76378467998780   17.59385384149775
C         2.50261666737151    2.15221534435005   16.16593402338179
C         3.37596171028577    1.17949863140265   15.47985895124882
C         5.22621775097703   -0.23394722886966   15.70546009910432
C         0.63629108713718    2.15585230028742   13.08857161653027
C        -0.12968184267046    0.87948118337927   13.05387108635042
C        -0.83000055055239   -0.95040650245812   14.32950540834407
C         0.75585896794645    2.87957427766330   11.87954556656120
C         3.67915567705592    3.46914251694919   13.85935721269482
H         2.50571966672939    6.69041076597562   13.54843137994630
H         4.34544380525659    6.35661054002265   15.48259956332657
H         3.08460367042254    5.46289381294754   17.67760277343428
H         0.47576561188020    5.26990056877800   17.10543585532659
H         0.11635865799553    6.01799775854544   14.55702086989289
H        -1.13796414504522    3.50087407065070   14.86221495714845
H        -3.25928904527928    3.48091194870947   16.09928579571908
H        -3.40408616409893    2.36633449785169   18.29798006967733
H        -1.41281654042452    1.25451517531055   19.24027228793751
H         0.70353973791493    1.25325974149410   18.00534481942504
H         2.60392103010324    2.14133538618480   17.25093925053875
H         5.95279776058459   -0.48115311824057   16.47485265616008
H         5.71537500328337    0.21705450385801   14.84014848187115
H         4.69136163864196   -1.12762317294285   15.37843634860487
H        -0.92038482552342   -1.18487857777748   15.38748091666745
H        -0.26598590541957   -1.72940554495136   13.81235004601798
H        -1.81588619750550   -0.86294551030752   13.86770309890617

