23
CSD_code = KOZRUM | q = 0 | S = 0 | Stoichiometry = C10H8CrO4 | MND = 9
Cr        1.20079270832961    0.46975417241576   11.16109442508538
C         2.60272958063034    1.02980817125394   10.13899677234299
O         3.53443194502724    1.31730957555507    9.51969659774501
C         1.59733085017168   -1.12644409535778   10.37589326584227
O         1.91206528772551   -2.13332803358901    9.90311451222396
C         2.57270124466629   -0.02811033536112   12.25087257841065
O         3.48263887323904   -0.36327318037117   12.87995730822178
C        -1.06857422453777    0.05086099713170   10.99279228888837
C        -0.71684416920230    0.09602921119453   12.35303194952528
C        -0.05245405640973    1.22707338880906   12.86116045556857
C         0.22586066979592    2.32912805917121   12.04409407070241
C        -0.08915979106769    2.25975903541279   10.67900780080674
C        -0.74533359403964    1.14046270087201   10.15561799669695
O        -1.76077637712576   -0.95534919188892   10.40472795778436
C        -1.86522809548593   -2.19146126080242   11.08029796278000
H        -1.01062734521385   -0.69599789121247   13.02854454994991
H         0.13989262005807    1.28450490659316   13.92659402206472
H         0.65107215475614    3.23097103101929   12.46496963887430
H         0.08312109214218    3.11899859294782   10.04140701799585
H        -1.08138404214275    1.11183061455494    9.12792484889336
H        -2.51458597970048   -2.11869604696349   11.95852936748294
H        -2.31137064216040   -2.87780978867757   10.36337554724205
H        -0.87819870945582   -2.56162063270734   11.37439906487217

