76
CSD_code = KOZYIJ | q = 0 | S = 0 | Stoichiometry = C29H35N5O2S4Zn | MND = 5
Zn       12.95143075133747    7.88429021198235    3.24838281437272
S        10.72530053861935    7.66735442762970    2.10163293480064
S        11.23335610276199    7.43558971870515    4.98968036635081
O         4.21398762064621    7.09862788039603    2.88631036139832
N         6.28264562032909    7.90922917020777    4.44073205664704
C         3.91178061332302    7.94273383635449    3.92501846563762
C         6.86126688226499    8.14064323965121    3.13515434561922
H         7.37797185148914    9.11511906813536    3.10458993130721
H         6.07886901043053    8.13173172982701    2.38056715138357
N        12.95246875320576   10.05447106345829    3.24810512727436
N         8.88024478879801    7.01948221574120    3.87112871444613
C        10.15329419774545    7.34894729007650    3.67203235641921
C         3.43648292729460    9.59857388586929    6.11067518842086
H         3.26078740762140   10.23858851191940    6.96202558438054
C         7.87558085499125    7.03641469536546    2.83181398714636
H         7.36359541023491    6.06958557262550    2.82892241106784
H         8.35263522841258    7.20328583269842    1.86673431732900
C         7.28842291028637    7.92505355723865    5.47581079953787
H         6.82193681689998    7.72411077888315    6.44076352557682
H         7.82354964838128    8.88813096041704    5.52579265624913
C         2.62723232492302    8.35912905959430    4.22975206621580
H         1.79201313508439    8.03277182536269    3.63061707299003
C         4.99800062194932    8.37759420208242    4.71849760416063
C         4.72833451926111    9.20391555148707    5.80419135246999
H         5.54259891496506    9.55548555757466    6.41837191323124
C         8.30283646133923    6.81433921609243    5.17883906776439
H         9.09309646629950    6.80567515365249    5.92902500304623
H         7.78664362480642    5.84911814947208    5.17621236203860
C        13.24046238965051   12.11200236838534    4.40463424951388
H        13.46899554539124   12.61981998083108    5.32830089330549
C         3.16192125122946    6.57827920847781    2.11343044840906
H         3.63265802259831    5.91615424305497    1.38774982332032
H         2.62021441763142    7.36753307289774    1.58121647997865
H         2.45856176803016    6.00296697420959    2.72394423725164
C        13.22885106479292   10.72848322941256    4.35786543507713
H        13.44945878979489   10.13129031544587    5.23217090333867
C         2.38630034604855    9.18183682338888    5.32089289727036
H         1.37510229382488    9.48540183040242    5.54447523681707
C        12.95477371363189   12.81941901680450    3.24741048484487
H        12.95568760960860   13.89958854561907    3.24715850792831
C        12.66797108522560   12.11190309696775    2.09052362082043
H        12.44013602052320   12.61963892063286    1.16664608089959
C        12.67728032494318   10.72839143396046    2.13798731060646
H        12.45569995391665   10.13110152648642    1.26400423646962
S        15.17751705286545    7.66574406465756    4.39503557070596
S        14.66911013510051    7.43438424110312    1.50698362540827
O        21.68848192107949    7.09906030598701    3.60979130935211
N        19.61920734269289    7.90896454948221    2.05577605123820
C        21.99011898295046    7.94358876700422    2.57125990060995
C        19.04059865632010    8.13958892751444    3.36149824836700
H        18.52330232174300    9.11373506348481    3.39244214318763
H        19.82309046513613    8.13091072563838    4.11598854045273
N        17.02220434944967    7.01755703568676    2.62534022788970
C        15.74925260882988    7.34737991681393    2.82452910664927
C        22.46431147620940    9.60014665780193    0.38590330377236
H        22.63956067114504   10.24049802176883   -0.46528503005604
C        18.02695697429074    7.03465964070913    3.66456399665655
H        18.53947874008487    6.06812596210211    3.66698677549319
H        17.54990269709235    7.20086959823831    4.62976121581876
C        18.61333657825342    7.92442761813215    1.02078375476339
H        19.07987142318388    7.72402232797149    0.05574805923392
H        18.07761018500054    8.88718990802639    0.97108564717228
C        23.27441411938886    8.36072576260272    2.26647403002992
H        24.10987732305366    8.03464996690788    2.86541880983146
C        20.90357877715953    8.37805570720634    1.77800229477017
C        21.17269936275161    9.20475778947105    0.69245938299546
H        20.35817991541448    9.55607134637511    0.07847242024420
C        17.59962606597842    6.81300631844602    1.31755577836171
H        16.80932475501426    6.80400281152912    0.56741810783001
H        18.11640193133443    5.84810055913290    1.31998206321436
C        22.74090045886675    6.57921638313902    4.38253124645730
H        22.27059844089991    5.91669280446542    5.10813060004904
H        23.28215680878867    7.36871614008837    4.91483868219697
H        23.44457265008360    6.00442189224711    3.77188956618680
C        23.51480227014016    9.18378640344683    1.17547742292995
H        24.52581593819358    9.48793983336252    0.95186676474337

