77
CSD_code = KOZYEF | q = 0 | S = 0 | Stoichiometry = C32H34N6S4Zn | MND = 6
Zn        4.77622881504683    7.52618487447443    9.33053678507188
S         6.06623938201975    6.11828134461152    7.67700508690823
S         3.74695408336440    5.20708668103070    9.23581155016229
N         5.98663452036805    6.96513645701584   11.05067058811864
N         4.74220222593968    3.89867351257017    7.17192303113942
N         5.53260266213941    1.24230445036468    6.71904445940324
C         5.41399598577462    7.15842059364233   12.23924598523468
C         6.00354571642011    6.67018932284607   13.40514381199381
H         5.52421714962892    6.79308437108988   14.36243738327870
C         4.83981273945682    4.97324932046424    7.95636553674199
C         7.80341647804299    5.83410256043364   12.08046375242318
H         8.74814278391559    5.32611278218882   11.97191359286992
C         7.14264127526018    6.33322366976746   10.96921359501323
H         7.54939064907789    6.22298422758076    9.97321273138577
C         6.46907126350143    2.31680994162800    6.48814040742722
H         7.11787902231540    2.06337513165943    5.64977737475226
H         7.08810144595059    2.52302818409560    7.37650812944059
C         5.88176829971470   -0.07886567401829    6.46681977060479
C         7.21142929655596    5.99963249194388   13.32174135630352
H         7.68054696586498    5.61189209030285   14.21396530441769
C         4.60533995379363    1.56308379108993    7.78159870425303
H         5.15125185846227    1.76467699628226    8.71903877929428
H         3.92497508925258    0.73185603307671    7.95559336047382
C         5.68354214141683    3.58315939710072    6.12430417819763
H         6.36156964338662    4.42411622289049    5.98067609626899
H         5.12137716660035    3.40397222261920    5.20150327131236
C         7.20335446966405   -0.47498480227936    6.24823725315180
H         8.00826668533240    0.23812885099266    6.33823085786696
C         3.81349938299895    2.81852232868789    7.40891306685844
H         3.24795805872295    2.63875759974331    6.48860272703504
H         3.13088108071129    3.09847508889681    8.21112202492972
C         7.50587659548049   -1.78736340597258    5.93550615405505
H         8.53735427335350   -2.06759882566053    5.77536516356120
C         6.50782098207386   -2.74010451829778    5.84118824736645
H         6.74891240870888   -3.76432412558225    5.60082822952456
C         4.88126381569406   -1.05116884979398    6.36178284269265
H         3.84660704728397   -0.77378292047743    6.49829581830481
C         5.19331142393992   -2.36031840114167    6.05880600205467
H         4.40018017615036   -3.09001657394787    5.98089147072247
N         3.56580512860830    8.08652639674605   11.05078296272194
C         4.13854769628304    7.89325666213576   12.23929512130392
C         3.54896490002401    8.38128812401307   13.40526700600735
H         4.02809778380093    8.25790635570185   14.36260284817615
C         1.74898172805047    9.21734802497422   12.08075030115476
H         0.80453389402400    9.72583468176295   11.97217636070216
C         2.40959822406236    8.71810189549464   10.96948516228890
H         2.00339365380173    8.82946682684349    9.97336628694998
C         2.34111703100056    9.05192050612773   13.32196066943125
H         1.87192008360127    9.43942282981265   14.21425022098997
S         3.48566082355470    8.93391567828896    7.67760919567863
S         5.80553033663929    9.84419517272905    9.23610636883754
N         4.81056528854858   11.15280793442464    7.17208670658704
N         4.02002521203868   13.80939741501643    6.71924455763474
C         4.71352781828947   10.07782013567082    7.95605783159472
C         3.08345922297495   12.73492438309294    6.48858050227820
H         2.43442876069420   12.98839412722012    5.65037839577176
H         2.46466745670239   12.52876480828103    7.37711206343081
C         3.67091798492489   15.13055856121385    6.46686576629852
C         4.94748367578470   13.48862922113211    7.78162543368520
H         4.40177633682917   13.28722194951847    8.71923566375282
H         5.62794287475868   14.31983080314898    7.95536052941626
C         3.86885457023156   11.46847826028156    6.12483163006524
H         3.19085263834734   10.62747695863785    5.98128502304270
H         4.43079668203836   11.64778729101567    5.20192993395251
C         2.34933374136167   15.52663391614936    6.24807370646263
H         1.54441188247598   14.81354930378794    6.33811714808075
C         5.73917711842415   12.23309198113283    7.40892467195218
H         6.30467653022163   12.41278712171915    6.48857848732159
H         6.42188532318531   11.95320940815168    8.21106326263014
C         2.04678437299577   16.83899368064058    5.93532312693177
H         1.01535413665617   17.11909909495122    5.77478164821687
C         3.04484146858185   17.79171739533542    5.84076456069250
H         2.80377447787641   18.81585569115583    5.60004474665028
C         4.67139684366580   16.10289009190224    6.36182722182017
H         5.70603329880017   15.82559553975982    6.49856373336835
C         4.35935761527763   17.41194181721484    6.05838453015832
H         5.15246037153159   18.14166751278308    5.98058213341018

