82
CSD_code = KOZZOT | q = 1 | S = 0 | Stoichiometry = C28H48ClNiP4(1+) | MND = 5
Ni       -3.32261143381051    3.72117249567067   16.11158249159826
P        -4.80436080707542    3.27563098009754   17.63207556348843
P        -1.69606865080740    2.51311403136318   17.12174547030279
P        -4.67016528266109    5.54592011306531   15.72409801480188
P        -1.92569940953470    4.07022087687977   14.44030395044987
Cl       -4.91821708745563    2.15781262182705   15.35910699717313
C        -6.40110683087790    4.01397622700182   17.19199737913099
C        -7.62776112183426    3.56471737309773   17.65826290195657
C        -8.78512450075804    4.23095924279269   17.29152190877593
C        -8.71940276569798    5.34242779718472   16.46787504678852
C        -7.49741211904290    5.79179185014421   15.99668807690285
C        -6.32958442700793    5.13300103964803   16.36120619310124
C        -5.13692920075497    1.72569693084936   18.56709526033652
C        -5.70321475781098    0.52518684584321   17.82519135160792
C        -4.36287483305697    4.37891390319726   19.08975930404760
C        -5.47916564390392    4.68179053281986   20.08089855573236
C        -4.25764935631321    7.22206039230857   16.41197862772708
C        -5.41145103667353    8.20009811111463   16.58301737596385
C        -5.06848027495967    5.96340362839147   13.96818110625533
C        -5.79273007316201    4.83489759333375   13.24509304066413
C        -0.22051571754804    2.60579529274616   16.04881863243997
C         0.99023047023991    2.01736589431740   16.39788558199869
C         2.05032993217254    2.03046912735658   15.51051821021190
C         1.90761010710089    2.62056349012903   14.26384158070146
C         0.70863062592670    3.21090648201583   13.91044286101711
C        -0.35977925438844    3.20873291630306   14.80035581181138
C        -1.87660656222550    0.67504857820921   17.18391271337935
C        -2.07033552324841    0.06216139578658   15.80279546783015
C        -1.00940358712055    2.84438906344434   18.80424592232425
C        -0.56739294021653    4.29343682945662   18.95256713538154
C        -1.26279866319853    5.79181522281130   14.32586525355666
C        -0.75868923845380    6.24607483487958   15.68924391359331
C        -2.26000935947085    3.65417605887049   12.67923779896538
C        -2.51696771534291    2.16270015671193   12.50173967827802
H        -7.69316077305782    2.69697223571739   18.29551347584541
H        -9.74099214959102    3.87686755468002   17.64554761400781
H        -9.62436095206646    5.85508403492645   16.17982914730177
H        -7.46810221368398    6.64677509655695   15.33956562033214
H        -5.83855593073974    2.04393045574100   19.34466811858857
H        -4.19989136496106    1.46472165700703   19.07090580645867
H        -5.96617007310011   -0.24918119325594   18.54404719056241
H        -4.98574033389851    0.11260321054571   17.12262184903229
H        -6.59392992755106    0.79606734004110   17.26447144262819
H        -4.00427210754386    5.32058248702935   18.66214111852044
H        -3.52274863061254    3.91613662278546   19.61182867685487
H        -5.12343114829110    5.40550242786555   20.81211524977727
H        -5.79265605907186    3.79379894278315   20.62349860663937
H        -6.34765126879769    5.10598981812580   19.58108991137101
H        -3.50632195012279    7.64218360009778   15.73648970269237
H        -3.77260802249299    7.07161033456002   17.38056006444778
H        -5.03472558329532    9.12230057610591   17.02109086056510
H        -6.17377293655513    7.79742305622441   17.24616841504203
H        -5.87127971928081    8.45181257941157   15.63119558608361
H        -4.12591814413507    6.19010656664943   13.46170822083912
H        -5.67286566764799    6.87426329786910   13.96205240676312
H        -5.89149591754519    5.06778899871802   12.18693692427653
H        -6.78828312541405    4.68580962803517   13.65646189959997
H        -5.25060806971209    3.89703058398771   13.34744420778383
H         1.11425737965818    1.54226605313692   17.35956854374942
H         2.98792438162119    1.57374156488119   15.78765917547738
H         2.73372552038918    2.62229787446596   13.56960053199060
H         0.61009846909595    3.67078884310664   12.93824213425490
H        -2.72713826963646    0.43089308824016   17.82216867756719
H        -0.97183302498024    0.27713297409000   17.65357296228040
H        -2.22810588129485   -1.01020479443101   15.89008933692711
H        -1.19438083584680    0.22880969599243   15.17876457436290
H        -2.93623228535137    0.49666912851469   15.30757706942856
H        -0.16851459560459    2.17039341253896   18.97917404456144
H        -1.78315075500404    2.59709779520485   19.53641676103657
H        -0.24351167761300    4.49381748862332   19.97126245817620
H        -1.38492150948329    4.97181478276766   18.71214529050683
H         0.26225690832440    4.50698557740331   18.28160806771799
H        -2.05840818477540    6.45296170227847   13.97521104677864
H        -0.45596441379745    5.80936868165052   13.58921485956204
H        -0.52514253248081    7.30813625396008   15.68719685817827
H         0.14070865177684    5.69866015193523   15.96446101538750
H        -1.52013012001082    6.05689908780672   16.44962058046618
H        -1.40601847486183    3.97935890681692   12.07858972237237
H        -3.13327124823896    4.22607725118673   12.35874544750873
H        -2.74289290818912    1.94051345950338   11.46177697234063
H        -3.36134340638376    1.84617018808222   13.11049722078442
H        -1.64386207915857    1.58304299037769   12.79573535426333

