41
CSD_code = KUBFIX | q = 0 | S = 0 | Stoichiometry = C18H16N4NiO2 | MND = 4
C        -0.45081822472560   14.48659160165105    5.83550664600841
C        -0.76495869647548   15.80431117725231    6.40344568569946
C        -1.00119572886101   16.90354952101063    5.57921917833533
H        -0.95102058170730   16.77420416971162    4.50994457033240
C        -1.29395837396011   18.13221803548073    6.13833606271275
H        -1.47733879169118   18.98470311754404    5.50076514731062
C        -1.35322758978784   18.27495412415990    7.51663462883461
H        -1.58226600930346   19.23808454798966    7.94907796775316
C        -1.11930323540044   17.18450969414943    8.33989605317659
H        -1.16604017127735   17.29841917204761    9.41291145401080
C        -0.82614713299423   15.95256216317937    7.78832336081199
H        -0.64040340656983   15.08973032596323    8.40959185689462
C         0.03375135888690   12.68272163649338    2.94403967120973
C         0.35761153691432   11.26734093045222    2.91786158468229
C         0.72522747743227    9.33114634165934    5.74017913687137
C         1.01269014883279    7.98729167146250    6.25888476455891
C         1.27517283519774    6.92517784644739    5.39494646656063
H         1.26646045535136    7.10328381944254    4.33151859644655
C         1.54004836581931    5.67038619569148    5.90808341028201
H         1.74326253750333    4.84651503033941    5.23964940368519
C         1.54551810056828    5.46467345447791    7.27964203812402
H         1.75269051601776    4.48130413309465    7.67605578997273
C         1.28565791920419    6.51810767975031    8.14231693519463
H         1.29071477280814    6.35522712602422    9.21001997705127
C         1.01994974169407    7.77578439340056    7.63684660657669
H         0.81467655559597    8.61065593474650    8.28936750577400
C        -0.13067577949840   13.53349538212477    1.73159617587090
H        -0.93310791885393   13.14839463767968    1.10422843327480
H         0.78583731741343   13.53706943237593    1.14361963746723
H        -0.36720119236112   14.54765351731790    2.04024513918654
C         0.56994195709445   10.47305404132421    1.67492262190843
H         1.39098000950551   10.89025154012666    1.09394661789803
H        -0.32560861238852   10.49129735694838    1.05569927772023
H         0.80208582683552    9.44714898153614    1.94570718220502
N        -0.09871921097874   13.12749558664842    4.16666080969246
N        -0.39328347394229   14.37899569372038    4.50537810561029
N         0.44134757214457   10.76652960210487    4.12299693868853
N         0.72157565597056    9.50010181393657    4.41520021084697
O        -0.24321738532134   13.49497876406542    6.60695016089658
O         0.48884406107251   10.28700078579799    6.54763091001896
Ni        0.14454679423456   11.91577902066921    5.50485327984348

