63
CSD_code = KUBGEU | q = 0 | S = 0 | Stoichiometry = C24H22N10NiO6 | MND = 6
C         8.42152895910997   -0.47256278577811    3.32356503526360
C         9.69536431654277   -0.52602730479340    4.07607501066423
C        10.18816962992597    0.64578635939930    4.65152523511294
H         9.62261318758721    1.55643435336377    4.52581461559801
C        11.37046381749892    0.63144038043588    5.35918085014307
H        11.77173145114972    1.52488289024319    5.81304787192353
C        12.06501294293998   -0.56715751963838    5.49222384391727
C        11.58640461888411   -1.74420031429728    4.92267891049659
H        12.15287016113712   -2.65455344205308    5.04706105265014
C        10.40327247078463   -1.71999170672367    4.21605231633388
H        10.00654490671080   -2.61457775100979    3.76482075688068
C         6.32700918957952   -2.42385227051266    1.40682963613488
C         5.11627128006446   -1.98232369302028    0.77284873513299
C         3.82753689344507    1.20915492837839    0.91031844383135
C         2.68008001438820    2.02357815041796    0.45022576208324
C         1.70650906016305    1.49041801028397   -0.39486390689055
H         1.79923233900008    0.46452931231101   -0.71150934859777
C         0.65072402492184    2.27146465521461   -0.81342373994185
H        -0.11487299418125    1.88441970150902   -1.46854907439298
C         0.56777487231941    3.59333940194895   -0.38392272438464
C         1.53025820403249    4.13781148387308    0.46096461100297
H         1.43334976417929    5.16594407208940    0.77528592038985
C         2.58238530870732    3.34952539007909    0.87383394733792
H         3.34718531296852    3.73639284265805    1.52983882174190
C         7.50851970872419    2.39089496219652    0.25031330348216
H         6.77671148959923    3.08382096584775    0.61525784892721
C         9.29984964267944    1.59913759824847   -0.71791151978995
H        10.22789279777313    1.60058387407751   -1.25056206144973
C         8.54969828864021    0.58184897617889   -0.20730131984160
H         8.73973498475005   -0.47299641222185   -0.23233178164032
C         5.14204953397314    0.83045229704525    5.01484541239771
H         6.06386684134709    1.36285590902354    5.14027130444359
C         3.12115930477601    0.08643732035725    5.38292306052582
H         2.18139960272545   -0.04226449873956    5.87823904713710
C         3.61587197807481   -0.44134041425783    4.22744308035708
H         3.14898130443499   -1.12283383935718    3.54407402232906
C         6.86425022695304   -3.81422983463578    1.31793413402879
H         7.01479970892177   -4.09793236621722    0.27744819790358
H         6.16388080349408   -4.52009370392606    1.76238545557921
H         7.81013988478544   -3.86595405539443    1.84915813102160
C         4.22796028780233   -2.85928329632678   -0.04659298056877
H         3.90504074138611   -3.72210219721611    0.53391881577586
H         4.76030040983258   -3.22312491607826   -0.92442516006830
H         3.35974631296721   -2.28989739796113   -0.36532285357033
N         6.90837147644832   -1.46194890708734    2.07294873101187
N         8.04301437804662   -1.60760080578081    2.73542238992598
N         4.88151855176640   -0.71696361014882    0.99735118342875
N         3.82701091095591   -0.06912711841178    0.53181567188137
N         7.43705967891502    1.09197385046219    0.39043667759460
N         8.62329949694749    2.74702658859358   -0.42018332329881
H         8.91392903583938    3.68298086258058   -0.65099050260497
N         4.87580037117971    0.03076581762086    4.01418160039566
N         4.10542960045632    0.89424204577818    5.87555314077786
H         4.05520829089318    1.44207738049505    6.71888177995498
N        13.29773840093082   -0.59004757881154    6.23058253970239
N        -0.53072770726802    4.41071087159290   -0.82101806752390
O         7.76918257971242    0.60046530591764    3.26623331523765
O         4.72709314614502    1.73286464496240    1.61560078447278
O        13.68726640592374    0.45360232990676    6.71490104134434
O        13.88169338847466   -1.65060486746957    6.32601250889023
O        -0.56931983227852    5.56150655642896   -0.43450050798946
O        -1.35875854713680    3.90414448986962   -1.55090172789483
Ni        6.09171678856428    0.17977802847890    2.04468604528719

