77
CSD_code = KUBGAR | q = 0 | S = 0 | Stoichiometry = C38H33Cl2N3Pd | MND = 4
Pd        3.43530722379612    5.56440933905575   17.81151342517279
Cl        4.42311882609137    6.63161314575552   16.02136974172257
Cl        2.42188532241278    4.50794064873859   19.59153992512378
N         0.96839661910347    7.16622104061086   17.44205619165961
N         2.34401895274355    8.14799328710693   18.77694074519025
N         4.69363331458811    4.03628841141699   17.62494846150497
C         2.18255006981946    7.05237547389899   18.01152999261029
C         0.37340229761428    8.33666161577479   17.84462781169729
H        -0.59992929119751    8.62790968193727   17.50839079565544
C         1.23503760908371    8.95189594420284   18.67836712174022
H         1.15411503547249    9.88070849452131   19.20371289593555
C         5.80801445954200    3.98479288553758   18.35065281729922
H         5.99332295866520    4.82398829831160   19.01779702673286
C         6.69356575880909    2.92389362203662   18.27477517246225
H         7.58577460082265    2.92135683173127   18.88094149833078
C         6.41141670532839    1.87530415578648   17.41300272346611
H         7.08097072328330    1.03260214723496   17.33065996435849
C         5.24891729631445    1.93375666925246   16.66003074104423
H         4.98784299527282    1.14097723189790   15.97677009939864
C         4.41776538112714    3.03194090145363   16.79635702594546
H         3.49798717211597    3.11429779141700   16.22110068949857
C         0.27445824480489    6.30107865682163   16.48925246675587
C        -1.12545082769408    6.01173502389392   16.99462217298692
C        -1.49135205338902    5.36066683970277   18.15106638746128
H        -0.74415116655988    4.99682201125643   18.84119340984918
C        -2.84693977243107    5.18833054901276   18.40477937157353
H        -3.16019345036425    4.68082203788653   19.30474402466296
C        -3.80036249984182    5.65749656469989   17.51463180146765
H        -4.84817966197022    5.50758244553562   17.73058102940336
C        -3.43147635981957    6.31928724032662   16.35247995384160
H        -4.18060607279546    6.68510289506266   15.66636949785279
C        -2.08369062157929    6.49967094096497   16.09463978355407
C        -1.39330129274747    7.16684676278253   14.99678994524547
C        -1.87388371541004    7.82395900426551   13.87746638498434
H        -2.93443088654824    7.88910023571944   13.68555305139244
C        -0.96103878043848    8.39960017781257   13.00566530772687
H        -1.31928571776151    8.91583248988205   12.12687808852084
C         0.40245959644349    8.32679146760590   13.24504992827692
H         1.09170934966665    8.78855249781909   12.55422284267864
C         0.89409700120606    7.66340799945226   14.36300434007062
H         1.95589627388487    7.60327210592859   14.55434851105536
C        -0.01232486918657    7.08622998283737   15.22342602650370
C         1.02070211413611    4.99548858183467   16.16377252373499
H         1.98764589609873    5.25233811008771   15.69947336150322
H         1.17065843478077    4.43151661471864   17.09852720630724
C         0.23208754050932    4.12500912907869   15.18816676323097
H         0.78870403049486    3.21595347915853   14.97257716817740
H        -0.73116938899601    3.84343293020502   15.60799435940925
H         0.05955169551959    4.65058227331124   14.25128974752574
C         3.48654552431709    8.59182596056327   19.57388982462956
C         4.04975477298368    9.86722634555671   18.97496350924066
C         4.58367184392783   10.04788957615013   17.71896380825174
H         4.62833391785074    9.23202871991761   17.01163244618717
C         5.05967486701685   11.31099970660455   17.38779655290774
H         5.48268083519763   11.47972020429862   16.40897482178680
C         5.00063352680085   12.35391264832974   18.29913489127578
H         5.38252632206930   13.32540405836573   18.02065728161347
C         4.45572011160159   12.17222031422199   19.56191159374030
H         4.40979045917049   12.99083255906212   20.26453325252614
C         3.97265912431930   10.91944020177568   19.89778476862106
C         3.32604380086728   10.42855699626996   21.10909444474238
C         2.99755115982454   11.06653025208573   22.29259582039911
H         3.24422711778984   12.10606175655107   22.44818429160194
C         2.34155421041729   10.34098251747228   23.27633472035252
H         2.07790269421260   10.82387144278784   24.20599589250389
C         2.01529983477026    9.00757794084808   23.08421478366722
H         1.49891452328106    8.46633303249164   23.86272465698098
C         2.34757545744289    8.35778497169854   21.90142618976384
H         2.09584096905706    7.31871748351874   21.74754329022004
C         3.00428777170680    9.07575337470962   20.92744932914517
C         4.58871354140830    7.52942353859222   19.73338831177106
H         5.00992471964377    7.30875854174230   18.73680668951900
H         4.14508374960704    6.62578927581334   20.17930497368331
C         5.72002342336622    8.02229519047063   20.63259909108473
H         6.49081158466753    7.25884370026076   20.70762131358847
H         6.17153188498315    8.92480093154439   20.22587178021522
H         5.35707518089193    8.24008209289567   21.63465134772923

