49
CSD_code = KUBHIZ | q = 0 | S = 0 | Stoichiometry = C19H24Br2N2NiO | MND = 5
Br        6.98029565313065    5.78544050278787   17.19730383349442
Br        4.92041861173516    7.78603021005657   15.54346221007337
Ni        4.88485382536854    5.73851261735408   16.59258399067053
O         3.89686724893710    6.63569627834206   18.55439505851742
N         3.01589572917982    5.54037604417000   16.35164738411447
N         4.86323634908591    3.99590443310245   15.40203795055490
C         2.66059316505022    7.15435552418564   18.09482167006859
C         2.11316526386414    6.22226223341473   17.04578256975760
C         0.75466590864760    6.08034768314320   16.79884044149033
C         0.33836034214016    5.20924507308521   15.80068068493257
C         1.28118868077384    4.47545711054958   15.10567102253088
C         2.62756312330477    4.65190222982109   15.41971017993372
C         3.71749762658919    3.91516670901123   14.82537350080805
C         5.99736864301547    3.36936899352381   14.88598362385056
C         6.65119961521281    2.44590484861419   15.71944443486608
C         7.77563132814928    1.80170726721332   15.23503204299893
C         8.26449567218100    2.09031288660585   13.97315143727920
C         7.64895915758151    3.04784484949769   13.19078524978494
C         6.50731789621041    3.70762172669535   13.62285701509736
C         6.06952126247722    2.13906115703582   17.07822634375600
C         5.09391234283055    0.96328896664583   16.96715019786806
C         7.13999469848592    1.86250546731239   18.13068638497068
C         5.93217529036034    4.83496551644686   12.79762817353880
C         5.47722501329132    4.34512892164323   11.42185655166880
C         6.96592154205032    5.95767610612992   12.67288018113602
H         4.43922376907577    7.34728711561705   18.91867951447602
H         2.79689776597649    8.14238747226138   17.63108562924557
H         1.95428453798213    7.24659741704314   18.93081126566950
H         0.04270313860877    6.65009824081826   17.37376955978549
H        -0.71208108069012    5.09830756839506   15.58037092594097
H         0.99711983916454    3.77140827367596   14.33993259420731
H         3.54452740234528    3.30517436189034   13.93980889386144
H         8.28106404374485    1.07197586514663   15.84631155852475
H         9.14250754314667    1.57974975566900   13.60683013800531
H         8.06580862660950    3.29179961835281   12.22596998778126
H         5.50211117421703    3.02010234415459   17.40946366984547
H         4.29511156228824    1.18461680105187   16.26028217299294
H         4.64704034782683    0.74985448751542   17.93584426715681
H         5.61663625426847    0.07288098984440   16.62339402691665
H         7.64134076402625    0.91473775367897   17.95111250074074
H         6.68064348816480    1.81704658637494   19.11590945137924
H         7.87744485148094    2.66158037588626   18.13150029197644
H         5.06020896165173    5.26233177620976   13.30471143334381
H         6.31860060890501    3.96811320051869   10.84626579080184
H         5.02416338231882    5.16470258559291   10.86878970789016
H         4.74436457966829    3.54474565574327   11.51624678505355
H         7.28704001130823    6.28103062731759   13.66033539497018
H         6.52616862043202    6.81133752916898   12.16290948296663
H         7.84034581782452    5.62935024169090   12.11727282270384

