84
CSD_code = KUBPED | q = 1 | S = 0 | Stoichiometry = C36H39FeN2P2S4(1+) | MND = 6
Fe        6.37195473326890    8.57600691492973    0.56089195192362
P         4.63107057153012    9.12169095976765   -0.70240177455358
P         5.16937388673453    6.80546761629303    1.13478991749316
S         5.72789365715023    9.65070944601223    2.48397012535957
S         7.86596719843748    7.85452798045027    2.07334115050307
S         7.37238278529981    7.70506018993559   -1.29237552539239
S         7.36759444855675   10.35253029974053   -0.29692073553130
N         7.61174924131955    9.24919968475156    4.34667279544194
N         8.40035780551435    9.76463883447494   -2.69803439617995
C         7.12122393456927    8.95445638079434    3.15776115670833
C         8.78666483911903    8.55636305663104    4.84470346328217
H         9.49605675225477    8.44596427618801    4.01833875165170
H         9.24305539551395    9.18003684199754    5.61417863227426
C         8.45330753577224    7.17924933243388    5.40996695723785
H         9.36705971607278    6.70141162395741    5.75057851083165
H         7.99790660365931    6.55390176062471    4.64625109148925
H         7.76726085310502    7.25495266951654    6.24865770460285
C         6.96289984144707   10.24897497334491    5.17400561433271
H         7.73152027821279   10.74243808797400    5.77163455487165
H         6.50790448766416   10.98836445243921    4.50830998565749
C         5.88800128169878    9.65622893699459    6.07787273055378
H         5.15218616768211    9.12167127143319    5.48314448792018
H         5.38872573243244   10.45811523740321    6.61365216504500
H         6.31857267352991    8.97256637596943    6.80393081180129
C         7.80794704820206    9.32361118261489   -1.59022187498690
C         8.83689990437162    8.83156600004777   -3.72432777366860
H         8.13158521645176    7.99608436925470   -3.75319814956376
H         8.82002290900362    9.36081920087515   -4.67891780265679
C        10.24370937612555    8.32880666852623   -3.41670578924035
H        10.94314782536768    9.16025765504737   -3.36735157219719
H        10.56394323832403    7.65085192667712   -4.20206718907921
H        10.25824122272341    7.79539102591221   -2.46881050570472
C         8.54568737145361   11.07755635026554   -2.92479309667582
C         8.26066247155274   12.20748791727032   -3.31901460423397
C         3.43876707546649    7.10775976636215    0.59169601231094
H         2.82471334669252    6.20839751753617    0.68030025173954
H         3.01560279774730    7.87992816892847    1.24357974223380
C         3.55850786579817    7.63539062886339   -0.83195349259766
H         2.59999196905807    7.86842404795521   -1.30152372005283
H         4.08051410119871    6.90234876013386   -1.45673587087887
C         3.58278130701488   10.41739020463442    0.01866355407321
C         2.19196853876605   10.34765385195850    0.02478265585259
H         1.67477067507192    9.49799201546177   -0.39447471458764
C         4.21148814918999   11.53984183709172    0.55636803714736
H         5.29152586856153   11.60282470668710    0.55668260766234
C         3.46515150407294   12.57260744236881    1.09120556941224
H         3.96373751639227   13.43705160200410    1.50195145836505
C         2.08208744581394   12.49397829140239    1.10023107853999
H         1.49714594639271   13.29699121025606    1.52120472222945
C         1.45082537470696   11.38289068442651    0.56633527183969
H         0.37306125522350   11.32029805933630    0.56732744920161
C         4.88722540613844    9.67235128597496   -2.41497188707629
C         5.00654872589656   11.03462101314327   -2.68489117940459
H         4.87212825009219   11.75653157711909   -1.89235703592509
C         5.29880000028419   11.46491166868074   -3.96602120247767
H         5.39522660840233   12.51976378798672   -4.16603097707016
C         5.47450238763411   10.54246219345194   -4.98488292618617
H         5.70754209581670   10.88002233832345   -5.98259065664708
C         5.35606963720450    9.18710780540992   -4.72167780108285
H         5.49225787056413    8.46654738404046   -5.51431794871719
C         5.07226877860599    8.74732741237821   -3.44147478905421
H         5.00918768353450    7.68680420986324   -3.24350687504070
C         5.00960219997300    6.28441558334655    2.86754451589175
C         4.16005864747302    6.97222805966230    3.73211229458428
H         3.57688890410563    7.80902504551874    3.37448481621836
C         4.06809115962195    6.58965899624151    5.05808730212476
H         3.39870270885602    7.11592269987233    5.72215483110566
C         4.82938416512309    5.53438464498980    5.53451248487840
H         4.75487506546054    5.23995540017501    6.56993964338686
C         5.68477416873833    4.85704819695885    4.68089186504971
H         6.27989672099278    4.03535061311759    5.04933947820616
C         5.77968001504498    5.22952537768278    3.35219969509262
H         6.44634503832139    4.69895632205609    2.68735026678147
C         5.68516660574408    5.29369080182911    0.27036368069517
C         7.05140590886950    5.01845836726930    0.21185649791271
H         7.75541402873201    5.70193563631018    0.66695792835190
C         7.51050310084434    3.88071275333168   -0.42415049674099
H         8.56993681618437    3.67899368450697   -0.46315262782450
C         6.61126491146754    3.00661078002849   -1.01302716186577
H         6.96762952729862    2.12081223773843   -1.51555804885558
C         5.25307445546061    3.27095099807819   -0.95427532213316
H         4.54925477092439    2.58899241868445   -1.40706516408855
C         4.78643658902083    4.40633255124485   -0.31554604106375
H         3.72247930641898    4.58405985913797   -0.27654954087779

