98
CSD_code = KUBPOO | q = 1 | S = 0 | Stoichiometry = C43H45F3N5OPt(1+) | MND = 4
Pt        6.80254085262866    2.60474480369701    0.41169322695847
F        21.71239184676514   -0.07896134050105    7.05636480755825
F        22.75273020765872    0.21636802244588    5.19761117414291
F        22.70774330597267    1.78757408986817    6.66345172386970
O        15.69130804097830    1.36088462052769    3.96522632804180
N        15.22590082505134    3.26148662491998    2.77848490483744
H        15.62349604360930    4.12581462320833    2.43733270651907
N        17.32271244903111    2.92614261373913    3.59970812325055
H        17.51353840066707    3.81558459812701    3.15933533342578
C         8.66964945102830    2.67808766992091    1.00565520226106
C         9.83766375671110    2.76475895459378    1.33753508169880
C        11.19411885830347    2.87228536986202    1.71571160052871
C        11.81908488296475    1.86196005212388    2.45155773206011
H        11.25298139739190    0.98717632370835    2.73484275642260
C        13.14422531708486    1.96363934889167    2.81521107171004
H        13.61668160423658    1.17901255426493    3.38065572626882
C        13.88322177378545    3.08885939618343    2.45073741243122
C        13.26271526724912    4.10322860200016    1.71686508073552
H        13.82918674399470    4.97945497456641    1.43169253528030
C        11.93981002782040    3.99822243594901    1.35329804742143
H        11.47026050063986    4.78951732529705    0.78724014535091
C        16.04672976840854    2.41332730084304    3.49425395756834
C        18.42783501364974    2.36641695096508    4.23824356309984
C        19.62787223375552    3.07860641352151    4.18915605257935
H        19.67161260986988    4.02506946389611    3.66941586353360
C        20.76206404269056    2.58518484922020    4.79739824789713
H        21.68696818192489    3.13941547955409    4.75832719673516
C        20.70781211393157    1.36967644731809    5.46884860912397
C        19.51957872568321    0.65385601579734    5.52054617523872
H        19.48231635274451   -0.28953082022304    6.04245277482466
C        18.38270766567502    1.14766930281574    4.91141492474076
H        17.46047230550518    0.59430488184402    4.95253733584830
C        21.95627909270482    0.82686462721016    6.09967264183926
N         6.83668577779352    4.20751358086149   -0.77220406194167
N         4.98783354343721    2.54904025804592   -0.18455112385052
N         6.21706412655570    0.98527442896739    1.41495551530003
C         7.84695650979798    5.03662513835141   -1.03408597801682
H         8.78106897997353    4.81226574022542   -0.53550330893011
C         7.72627307252627    6.11542030771588   -1.88481862186514
H         8.58650817831065    6.74266353784589   -2.04763712106772
C         6.51135368276914    6.38425880222821   -2.52105630281232
C         5.46428261002375    5.51235062636940   -2.23911757095242
H         4.49827705603459    5.65541954197462   -2.69112896842170
C         5.63831448573224    4.44143022932181   -1.37259593864022
C         6.38073781369616    7.56578583694168   -3.45617310511716
C         6.68339731315080    8.84846948870571   -2.66709066843122
H         5.98549516389835    8.96122098860137   -1.84020809804071
H         6.58243750256329    9.71083032677771   -3.32030958404530
H         7.69288311974289    8.84382214364755   -2.26644432072204
C         7.39649197559153    7.40206391538392   -4.59676679795421
H         7.30139792286744    8.23190226541871   -5.29165417844353
H         7.21409391927962    6.47743619556858   -5.14017564798534
H         8.41722775432224    7.38717829620638   -4.22618265250080
C         4.98075604040221    7.68382717148912   -4.06267493949426
H         4.22715790834618    7.83105479774971   -3.29209901410541
H         4.73102665471780    6.80499046766447   -4.65319253936714
H         4.94905274354877    8.54577636200258   -4.72378038713457
C         4.56993242036263    3.48845582904038   -1.03783212732979
C         3.25875209158392    3.46497219371787   -1.48962097073097
H         2.91319460295656    4.21687011244607   -2.17829653263160
C         2.38708401931924    2.46219722175088   -1.04951803112998
C         2.87648744525200    1.50550062742620   -0.15849270160044
H         2.23892641311402    0.71858024411838    0.20235087892649
C         4.19935484521860    1.57129566737849    0.26419086832609
C         0.95817779337653    2.44866756945184   -1.55710362966272
C         0.13374618954483    1.30346583585824   -0.96471270674747
H         0.06794459423441    1.38243069634370    0.11831956387208
H         0.54882954797117    0.33495372744613   -1.23507385770766
H        -0.87729612415322    1.35003859595300   -1.36075126758702
C         0.28343827518913    3.77577013401200   -1.17899809496420
H         0.29581686195635    3.91584399163497   -0.10009368334432
H        -0.75138727913584    3.76624713955951   -1.51013986054690
H         0.77519383767794    4.62692946662794   -1.64169606546493
C         0.98245376825913    2.28909930528287   -3.08482826557807
H         1.49455703945510    3.11592889245677   -3.56932735422711
H        -0.03489466183681    2.25456418867776   -3.46480860247978
H         1.48320179477898    1.36413875835574   -3.36335799807834
C         4.90944355301005    0.67356399502698    1.18701649318038
C         4.31861577758987   -0.41991061843170    1.79885075870132
H         3.28245600446752   -0.63058661410743    1.59175666870143
C         5.03886604271357   -1.23934971965249    2.66794463106588
C         6.37270432939729   -0.89201213427453    2.87779047113387
H         7.00377998800444   -1.46745965053680    3.53206666442609
C         6.91426244483830    0.21022180713601    2.24242012749594
H         7.94795469530529    0.49227270657092    2.39634731093212
C         4.36880793343826   -2.42609541918023    3.32480163963354
C         5.32188172213519   -3.19935376397201    4.23797011561699
H         6.16618249299188   -3.59726423235158    3.68024688507225
H         4.79181607852730   -4.03836493838029    4.68104730397395
H         5.68736343239301   -2.57259201754260    5.04779807559292
C         3.18727311393462   -1.91962083667501    4.16608529199205
H         2.43805086739313   -1.42461067183428    3.55419655998734
H         3.53258861270588   -1.21862739246649    4.92278253334611
H         2.71177482818144   -2.75769108689103    4.66810529021526
C         3.86241488543318   -3.37594876473485    2.22872927769489
H         3.12371318058693   -2.89946852207585    1.58995414432905
H         3.40024969675946   -4.24637116303719    2.68619269800418
H         4.68880332888077   -3.71410418565722    1.60750484613548

