62
CSD_code = KUBQII | q = 0 | S = 0 | Stoichiometry = C29H27AuNO2PS | MND = 4
Au        7.81228538816887   15.14240302525390   13.28468980635883
S         6.30062912738575   14.27236134233398   11.82005799517905
P         9.61443780906768   14.38958029067411   15.28832317855110
O         9.36329883548334   16.60085389642912    9.73178974672907
O         8.84994488007614   15.97722309397135   11.76761938569562
N         9.17658758792951   15.83496029152673   14.74644020047434
C         8.51917531311053   16.31854887805250   10.55908920211192
C         7.06429786622178   16.42399169235420   10.19831981592145
C         6.04872690946556   15.60374190546393   10.68806978662255
C         4.74350510942281   15.77048146748707   10.23154679390206
H         3.97895827416070   15.10915172812263   10.60947099654244
C         4.43941374413999   16.75388075469813    9.31277837080078
H         3.42058685778628   16.87325368954897    8.97428916990249
C         5.44027385101346   17.58362551378094    8.83042495909873
H         5.20923095059223   18.35808523358940    8.11433365099585
C         6.73771285774188   17.40664051330756    9.26625929085084
H         7.54097775528546   18.02205708218785    8.88848124207112
C         7.99972262523415   13.69732442014292   15.67918988237165
C         7.02499514294617   14.12037645981947   14.77257029020936
C         5.71619523797791   13.72406271360029   14.97215404974796
H         4.94761835445161   14.02909724868071   14.27897790762018
C         5.39153572560052   12.91764635434542   16.05478266657357
H         4.36410009013679   12.62150585745541   16.20537507988598
C         6.37068075007415   12.48056843599083   16.93076405784203
H         6.10986016562533   11.84034304834185   17.76063998547997
C         7.68695386495350   12.86643847787135   16.74643344805106
H         8.45929499669216   12.53307777160134   17.42657096953999
C        10.38543621377086   13.16631788086901   14.18010494878499
C        10.59862947078408   11.88608855036284   14.68852701480582
H        10.37156402180534   11.68136070145758   15.72714742531950
C        11.09608070920058   10.89468706133838   13.86601025777074
H        11.26333334192521    9.90226353995057   14.25827884833355
C        11.37206756885169   11.17386322907036   12.53510037893841
H        11.75701566177190   10.39576475119982   11.89287741569765
C        11.14811053181598   12.44234850304072   12.02675634789164
H        11.35414685350713   12.65779613775435   10.98929038891296
C        10.65119089652953   13.44342748535068   12.84484425159943
H        10.46876632956326   14.42960951572462   12.44439193962939
C        10.59625540835360   14.38524771313936   16.80573128622697
C         9.97345806117223   14.81089363084303   17.97603228663811
H         8.93556830468595   15.11487852877531   17.93899810651275
C        10.68886442093961   14.84547993857967   19.15752693661089
H        10.21099458111308   15.17168277368096   20.06923966092945
C        12.02203053938435   14.46192406624794   19.17055150258316
H        12.57991567664290   14.49019587770837   20.09447524502398
C        12.64291899371965   14.04605001520892   18.00342138778080
H        13.68225087193290   13.75345715639419   18.01800744352362
C        11.93316793353699   14.00601467570063   16.81615327321461
H        12.40855242924682   13.68386150421980   15.89919117808567
C        10.00691099716487   17.03657820580175   14.63172061447700
C        10.49164700748459   17.45586665017489   16.02412922034045
H         9.66246902450341   17.45954039166728   16.72814820560023
H        10.91233907247805   18.45728801669125   15.97591571516586
H        11.26241490079485   16.78022537890353   16.38815416551006
C         9.11217712538385   18.14500561438216   14.07384005533025
H         8.79213849733958   17.89884065622856   13.06638554496415
H         9.66022297766111   19.08308684148336   14.04084463426113
H         8.23302953002993   18.26868301224303   14.70245330642637
C        11.21057819564053   16.81300154252182   13.72002737285492
H        11.78420068789504   15.95471357370460   14.07900638473705
H        11.85274224228838   17.69085706492674   13.71946295651409
H        10.87781085042849   16.62671862789237   12.70251236982944

