48
CSD_code = KUBSEH | q = 0 | S = 0 | Stoichiometry = C23H16MoN4O4 | MND = 6
Mo        5.33225193065838    4.96446004587230    2.53996721812000
O         3.57700170509624    6.87555460334396    0.87281461175299
O         2.73447980709677    3.85634388462442    3.79810885813903
O         5.19063978909951    6.99452827655662    4.86945112115026
O         7.69239488243197    6.70159654198884    1.55445882047088
N         6.52771685597050    3.56302762639784    3.64266155827107
N         7.73285031796806    3.12845058871829    3.27780095206328
N         6.75836746863968    3.05659302321808    0.53955437838938
N         4.65038457740043    2.80286461979575    0.29475209146033
C         4.23055571655603    6.15819982991382    1.48517491207809
C         3.71552174613119    4.15915072926050    3.29233005309123
C         5.24401977766062    6.23201277232308    4.01810376697960
C         6.87931639053549    5.96751902659375    1.89113886398158
C         6.21177542396823    2.91294627911613    4.74603073097233
H         5.27462095656521    3.08935766108963    5.24184156108411
C         7.24056467216154    2.03548580368905    5.11306014983323
H         7.26764163098718    1.37677909411154    5.95615901184065
C         8.20724242499566    2.21001285245656    4.15573282929123
H         9.16372535993118    1.74579781253883    4.02274862821304
C         8.47213455423013    3.65013870454069    2.19687693077543
C         9.73211127686705    4.17754072351175    2.46356113821533
H        10.06872193443913    4.22762839784747    3.48847990294746
C        10.53171291810371    4.64556817291702    1.43874053847686
H        11.49970879931729    5.06542007012336    1.66234951769053
C        10.08225027704592    4.58171629426858    0.13038882720858
H        10.69785319652050    4.95136576410471   -0.67459649811208
C         8.83490638696618    4.05621800276038   -0.14616641170894
H         8.47099316266969    4.01871907447896   -1.16225431987591
C         8.01366112205683    3.59058895356119    0.87660929357837
C         6.58706223447137    2.11005043670775   -0.44790328889745
H         7.41186532029463    1.63510044364125   -0.93844085043420
C         5.25573075093733    1.93942113530082   -0.58313144475404
H         4.69833879881857    1.28582277302046   -1.22240782945044
C         5.55774529798687    3.50303558082908    0.99922643292334
C         3.22672263638334    2.87064912959228    0.47190003253023
H         2.74243372632024    2.82807893412392   -0.50911438657923
H         2.99534568808480    3.83998698057884    0.93073252791066
C         2.70201379078187    1.75665345974823    1.34886492930037
C         1.38297048437784    1.34339192728547    1.21558513801245
H         0.75052416331585    1.81201011777342    0.47516638785805
C         0.87309504035883    0.34809953604799    2.02930557872093
H        -0.15568104884907    0.03908962604103    1.91854129859643
C         1.67844951740052   -0.24900208172664    2.98405065946774
H         1.28070362871899   -1.02477422275247    3.62107714928842
C         2.99428555809221    0.15657231190846    3.12121801776794
H         3.62769363972943   -0.30042965441943    3.86751588370934
C         3.50393029678214    1.15331581334636    2.30816701618632
H         4.53254541393354    1.46644252323555    2.43436771147597

