46
CSD_code = KUBVOU | q = 0 | S = 0 | Stoichiometry = C16H22N2O5Zn | MND = 5
Zn       -2.88859587737119    5.34021561898258    6.08455430606248
O        -2.80254415204740    7.20028228888169    6.42347644899374
O        -1.09848526433111    5.40931124885316    5.30902198522370
O        -2.82108766118079    4.41838486298031    7.78688724345744
O        -4.39249754495911    4.07153335277983    5.64660758086608
O        -3.48705134476293    5.87218360361711    3.75641001752335
H        -2.84650455550624    5.27343005693399    3.36312003381884
H        -4.30313107642569    5.37087676143722    3.84490275105856
N        -0.03457556497392    9.32802556264090    5.62650666765863
N        -4.95232958566294    1.79707856199355    8.97473709303340
C        -1.64831941816038    7.59636857511024    5.99631535310397
C        -0.74201423884451    6.62834796340297    5.40893290503644
C         0.50069338610900    7.11251251600391    4.96336912142270
H         1.20716843746195    6.42852041785795    4.52209968881814
C         0.81447419547892    8.43840179544405    5.08787086155036
H         1.76574430770083    8.82079192916133    4.75033373417793
C        -1.25556945348408    8.92694777131895    6.09123865442823
C         0.36799263525776   10.71273130663967    5.73438667177922
H         1.31011346117316   10.85811568232391    5.20952149514552
H         0.50735644636691   10.99381662488925    6.78043569966946
H        -0.38241959268434   11.36682316812137    5.29176757766260
C        -2.23057070451873    9.91192025691160    6.66682655532280
H        -1.72956878219642   10.73348544009981    7.17970875020638
H        -2.83087769915423    9.36116505596763    7.39272907163944
C        -3.17362641017614   10.44862820999447    5.58596427876138
H        -3.90349287471955   11.12512180181547    6.02423085442461
H        -3.69910649736739    9.61510761685122    5.12894478275817
H        -2.63033302392218   10.98221487422746    4.80788562642991
C        -3.74694953171462    3.52235866891101    7.83424623217428
C        -4.59363919278905    3.34068649798367    6.67305805355899
C        -5.59387040530157    2.35948657732683    6.75790785045784
H        -6.24965949631755    2.19087928319180    5.91916541411000
C        -5.74046590840607    1.62183847873003    7.90247108103682
H        -6.50648228022016    0.86592885892795    7.98326985312380
C        -3.95057044567840    2.72570416407982    8.95714045459633
C        -5.15710785348304    0.96853247980806   10.14247902630281
H        -5.24817397911522    1.58213555977548   11.03786449090022
H        -4.32380561772575    0.27495251516719   10.27384569433329
H        -6.07138124427788    0.39087811853684   10.02144092719397
C        -3.07300180366103    2.95057599919712   10.15316148714007
H        -2.11068297327800    3.29228855856879    9.76801931582927
H        -2.91513141780728    2.03412735816560   10.72262618306866
C        -3.63598360688240    4.05239951382510   11.05589946753134
H        -2.97044939850839    4.22526786793570   11.89821401264082
H        -4.62120541951266    3.79353067350880   11.44035903551247
H        -3.71978097244074    4.97208590110975   10.48394561043553

