53
CSD_code = KUBVEJ | q = 0 | S = 0 | Stoichiometry = C22H16F6N6S2Zn | MND = 4
Zn        3.84211888412629    4.52915142029531    4.16986115808604
S         3.26507693751853    3.01167952676470    2.31015126038294
S         4.78072137320134    6.00941021175362    5.88863880185781
F         7.41355706383860   -1.37370119051095    3.12493804074576
F         5.79504675488780   -1.35550356089905    1.71260587834639
F         7.61425495620823   -0.28760946721993    1.28172552637948
F         9.19384576304189    8.62741218575368    3.74016016245102
F         8.00651953425286    9.84955228535619    2.43107044034274
F         7.70385440014053    9.95056110941217    4.55551345161233
N         5.20154939556539    2.88360150201553    4.02198351936654
N         5.11960284029951    1.16533642488102    2.39012643218973
N         5.16570564387773    5.98519113980346    3.33048239711543
N         6.39282382620942    7.59500396742112    4.56529267517276
N         2.00592399053035    5.61951109400894    3.86529035590378
N         2.48671950873414    3.60107993510048    5.55936522058543
C         4.63677865543660    2.27898445871992    2.94231841480540
C         6.20375590701799    0.65110855756854    2.92592929930463
C         6.86301688630423    1.20407388966726    4.01425095491681
H         7.75350614925789    0.76440039164282    4.42870097594743
C         6.29870069836117    2.36700971460559    4.55019705842493
C         6.74104639361281   -0.59448322273828    2.25714697317988
C         6.92220490874989    3.05147888923327    5.71630388417169
H         6.24858349536281    3.79662961448047    6.13373522014300
H         7.83233746974240    3.55614897755308    5.39208381385768
H         7.19887901323224    2.32708508631231    6.47946341030737
C         5.51682091834223    6.59202598653491    4.49638416015142
C         6.94032338437919    7.99193874740218    3.43829434864229
C         6.66096963802479    7.42506948491440    2.20322547267592
H         7.12892856822486    7.76710956139891    1.29652018695190
C         5.72632936998195    6.38345952176862    2.20089993883976
C         7.95223873854890    9.10987135800737    3.55482412247976
C         5.34701954121508    5.69974384606159    0.93371451452976
H         4.49633015468515    5.04041953832540    1.09018368909823
H         6.18718020553591    5.10280785451957    0.57992110978438
H         5.11391827577534    6.43209053215283    0.16347406470423
C         1.80925468818773    6.51921150932508    2.91708796136547
H         2.69745927411019    6.89817998180913    2.43195957640231
C         0.54988323824156    6.96271904651171    2.54865419518713
H         0.43548767008736    7.70011582859669    1.77080616086903
C        -0.54962879326778    6.42235253015309    3.19596863614613
H        -1.55108329899318    6.72380399181645    2.92829712376299
C        -0.34481794359910    5.48481256099577    4.19291658706644
H        -1.18908284492623    5.03998696172582    4.69341245207204
C         0.95837207534946    5.10863125608752    4.51654526145927
C         1.25962774869027    4.12625144473220    5.57088453142123
C         0.33045333750163    3.76350598288966    6.54565656363914
H        -0.64642903286375    4.21742098698789    6.57416189891177
C         0.68372443025213    2.82646439954923    7.50056682787504
H        -0.02090581549034    2.53412046103488    8.26442752421404
C         1.95496549440143    2.27622962505885    7.46130240576960
H         2.26959604356666    1.54081361026888    8.18381611386579
C         2.82338602784886    2.70561687538369    6.47147958134344
H         3.83014845679611    2.31841357503090    6.40627966510259

