49
CSD_code = KUBVIN | q = 0 | S = 0 | Stoichiometry = C22H12F6N6S2Zn | MND = 4
Zn       10.73536909466235    1.60624521203946    8.75761446037115
S         9.30846518342330    1.26837334024918    6.78440087936710
N         9.22329531180987    0.15074869099499    9.11326787879814
N         7.62223612451708   -0.60216524348763    7.53574765036507
F         6.40232235928681   -3.61100421104580    7.90269241394229
F         5.45010572376168   -1.97519688213870    6.87807003371136
F         5.05130075444682   -2.31855892187543    8.96298918560414
C         8.65177739644544    0.18125216652111    7.87838962056631
C         7.17953735145752   -1.44631845405560    8.43365067737525
C         7.72065592981835   -1.57670591054779    9.71300705235273
H         7.34357196820679   -2.28822933838333   10.42587060117559
C         8.77110907861681   -0.71491368921104    9.99800195934552
H         9.26360765956780   -0.71498068377423   10.96220290912338
C         6.01889150192914   -2.32702807531455    8.02524833325881
N         9.63921235346974    3.27829482047294    9.55963612525850
C         8.58545549561766    3.26293465604881   10.34343363243696
H         8.20994064760195    2.28893341967467   10.62309967476735
C         7.96347252334256    4.42570996258815   10.80572455824752
H         7.09963414695800    4.35321493715540   11.44696299776257
C         8.47155030838161    5.64506725863626   10.42895294703829
H         8.01982358123718    6.56766927261734   10.76317246438273
C         9.60121868702681    5.68867635655192    9.59502398963785
C        10.15730794725189    4.45682464331177    9.18271976099752
C        10.19125135309451    6.91021383983567    9.16027070218225
H         9.74541666103563    7.83666164909453    9.49032960091315
S        12.16235623128464    1.26867759527476   10.73085804929580
N        12.24748087113506    0.15073492110410    8.40214551750189
N        13.84864624674401   -0.60187268746548    9.97968991367491
F        15.06870169682470   -3.61070396675341    9.61289873219466
F        16.02078403497104   -1.97482540959842   10.63753769818208
F        16.41970819179539   -2.31820572570216    8.55265094765612
C        12.81894872268321    0.18133136318336    9.63703785694239
C        14.29144197258113   -1.44602101101535    9.08183422369543
C        13.75031771596621   -1.57656972412592    7.80250053627678
H        14.12751024297695   -2.28805970689984    7.08966341512088
C        12.69970594567616   -0.71499461823575    7.51749450360026
H        12.20738533562553   -0.71496611328616    6.55318873200038
C        15.45207275709962   -2.32670736756751    9.49033907982663
N        11.83162699542038    3.27824966083353    7.95561750731309
C        12.88536736682622    3.26284658317185    7.17179628729951
H        13.26071969584635    2.28882947737015    6.89196717478978
C        13.50754149656185    4.42559645143136    6.70969247531485
H        14.37138065405137    4.35306560912019    6.06845970004000
C        12.99969509119209    5.64497475196747    7.08671417023864
H        13.45154393508528    6.56756016733245    6.75260415919223
C        11.87001244070725    5.68862980369612    7.92062072899974
C        11.31372342922986    4.45680125904032    8.33272585902564
C        11.28012089918680    6.91019119740866    8.35549005173811
H        11.72617888310061    7.83661867566732    8.02569257357613

