62
CSD_code = KUBYIP | q = 0 | S = 0 | Stoichiometry = C24H30CrO7 | MND = 9
Cr        5.64982248472049   11.93118086893472   23.48141232688456
O         7.34137198672578   14.28782683590460   24.13643184978111
O         8.12842668650807   11.29410014494045   21.96214078245735
O         5.21519202243115   13.59967943250932   21.05455788485817
O         4.29395614266046   11.13064933111343   28.25788655750301
O         6.33278330396304   10.56810206851865   28.99738837670857
O         1.68996206395390   12.18606361785280   26.37485028160967
O         2.42544625842475   13.58568867016566   27.97026116355258
C         6.67083134597912   13.37250270381269   23.90767018585035
C         7.15716801967983   11.49446188109759   22.55517933767839
C         5.33737606783074   12.93429106066512   21.99085571093644
C         5.38481881254551   11.26467683562127   25.61176285036349
C         5.64051771061642   10.13141806649803   24.83040288146161
C         4.83353461368803    9.81290981451911   23.72120064464244
C         3.77043955535986   10.64355277963455   23.38430777238596
C         3.50825904994666   11.78903890554284   24.15954867552290
C         4.28947354821980   12.10473234054897   25.27773086963608
C         6.22348906879873   11.49494692224579   26.84085665212492
C         5.48172396753374   11.05565987173554   28.09251285788909
C         5.77144462314944   10.14717657740658   30.23481460331004
C         3.84602487525333   13.25530085411161   26.13374500444733
C         2.52806963634455   12.91517779944280   26.83450800327633
C         1.18541393502079   13.48303821119678   28.69443354065612
C         0.24484599001348   14.57290437058916   28.17763844669750
C        -1.06391584065098   14.61295189932506   28.96320725365730
C        -0.75072685888730   14.80439169919526   30.44593907652352
C         0.15089448537943   13.68210651845451   30.94888695947445
C         1.47805351280281   13.65339110057215   30.18796286771027
C         2.46452618230782   12.58366961797695   30.70104125798720
C         1.83219726986664   11.20516378423832   30.88062710837073
C         3.11718504783325   13.03201520318893   32.00845267755575
C        -1.97034003938254   15.72305375673897   28.43971694326694
H         6.42491684557146    9.44482328284868   25.12919051594822
H         5.00806466508879    8.89211795228329   23.17804173039105
H         3.10219184710590   10.37926227824544   22.57427673290555
H         2.62966728190761   12.38389005610720   23.94570930380034
H         7.16210436178983   10.94149667143463   26.78497319714619
H         6.47288488836994   12.55353753691843   26.95519967073851
H         6.56930766525752    9.64540792418188   30.77587906458988
H         4.93598463299016    9.46684579086346   30.05792393352012
H         5.41287718490400   11.01140014628517   30.79728225567406
H         3.63934803536217   14.12801010891631   25.50569541167976
H         4.57062148409551   13.54607774588806   26.89038779227798
H         0.75549184417522   12.49560377329026   28.49273516376263
H         0.04256316671265   14.39067331929656   27.11968958923914
H         0.75380117651589   15.53643993365703   28.26427148428130
H        -1.57552224798379   13.65244516043549   28.83576471817907
H        -0.25769290993754   15.76843115676921   30.59053578392530
H        -1.67908930793114   14.81447197729720   31.02078314537384
H        -0.36783981048120   12.73201771583264   30.81486541107403
H         0.34413547778462   13.81768876922762   32.01367988745337
H         1.96643160268030   14.62798576404256   30.30336233378665
H         3.24670422153418   12.49141445205254   29.94117698621993
H         1.34846018360228   10.87647756322475   29.96513850418885
H         1.10365148542303   11.20741726897026   31.68764809652816
H         2.60393999377387   10.47908700435506   31.12683958727496
H         3.84526039779769   12.29481779148271   32.34169569172769
H         2.37427589226170   13.14331164404632   32.79483473468292
H         3.62824249440834   13.98389013153196   31.88095527417010
H        -2.90741202936210   15.74111193644123   28.99123075887686
H        -2.19440865378786   15.57012308054579   27.38672457029017
H        -1.48842739826386   16.69209851922390   28.55107726551025

