42
CSD_code = KUCVUZ | q = 0 | S = 0 | Stoichiometry = C17H22SSiZr | MND = 12
Zr       -0.63643404192952    2.93782744529753    7.16432737343821
S        -2.31555900335585    1.05859006595190    7.20391756254950
Si       -1.78700466348714    6.05377791488893    8.36638298928691
C        -2.89182526810024    1.14873082254216    8.82715537086776
C        -3.01979797000515    2.23589657483613    9.61700663866523
C        -2.71967477167568    3.62454521975986    9.35480900637303
C        -1.95794958783446    4.17228375606116    8.37658290227387
C        -2.29322522093117    6.92220765822235   10.00019548777238
C         0.08015655850226    6.46689389308195    8.10737990523682
C        -2.83534798267507    6.89482867966346    6.99331297446806
C         1.70782141795632    3.19232136115331    8.05155535740282
C         1.66885367335255    1.92003033939903    7.44063162391461
C         0.78298850965789    1.10707602012627    8.17761825939746
C         0.28516505768558    1.87033278322788    9.25527750940849
C         0.84720241493504    3.16375661048975    9.17438244174780
C        -0.52131144649984    4.58353174885496    5.29651895595484
C        -1.69554180892220    3.82083017746114    5.07523021846334
C        -1.29961657333276    2.51264131794554    4.72980330398490
C         0.10638387680175    2.45148273816610    4.76568661983678
C         0.59053020155973    3.73487660712199    5.09858876332738
H        -3.25371887838341    0.19457303718642    9.19472978998644
H        -3.48399679820598    2.05513182622478   10.58198605268129
H        -3.22000169616025    4.26881110842091   10.08321584516906
H        -3.36500183327183    6.86133786108765   10.15891455837471
H        -1.80725301134852    6.46911679822514   10.85910038452038
H        -2.02533213948816    7.97414439183432    9.98840360823929
H         0.58624917684761    6.59138978105820    9.06013032915213
H         0.60083999414436    5.68226068861133    7.55447124764036
H         0.20177399999206    7.39738496339636    7.56176324503865
H        -2.58919754501447    6.54020335319878    5.99802283020057
H        -3.89275053219455    6.70687407014853    7.15303270933426
H        -2.69041799076570    7.97090956937320    7.00559632854777
H         2.40154286326312    3.98875195348810    7.80677792074905
H         2.31801425641159    1.58232865562490    6.64124319072741
H         0.60723945801538    0.04936478922464    8.01579472388369
H        -0.33312252352492    1.50051019280282   10.06365855578405
H         0.74752654512565    3.94175440113559    9.92178009456100
H        -0.47842234173330    5.65898300496763    5.40366802471601
H        -2.71055909605024    4.20015509537729    5.04783744781393
H        -1.95917551794597    1.71507553560029    4.41181961649499
H         0.70415199995790    1.60572428745540    4.44590958560161
H         1.62699823862581    4.05095290130810    5.06578064641234

