63
CSD_code = KUCVOU | q = 1 | S = 0 | Stoichiometry = C26H31ClNO2RuS(1+) | MND = 9
C         1.89892374603058    5.91091678676748    8.27376948404578
H         2.66021512627627    6.43246048579502    7.70114348063538
H         1.00611663224866    6.52247832219731    8.36923927062120
H         1.68183694661107    4.95231326171091    7.80969231569819
C         1.26065127142583    4.64810368110888   10.63049765698718
C         0.19084887944516    5.22046438929041   11.29361992718806
H         0.11311292612435    6.29430685991145   11.35559514310290
C        -0.75196082826781    4.39994889824269   11.89202397415669
H        -1.58649831630682    4.83663163528960   12.41623583492092
C        -0.60352012201972    3.02177404789366   11.83943734547216
H        -1.31890406038697    2.38531083051995   12.33546818915078
C         0.45506060250246    2.44859312851317   11.15950403676932
H         0.57003256319907    1.37666705918619   11.12302148542159
C         1.39108864347677    3.26061040208246   10.51800003541451
C         2.46982739635953    1.71412413970614    9.08022903522603
H         3.43539390820326    1.32184609295381    8.76618147104390
C         1.31137731041604    1.05123936453976    8.51932169350781
C         0.13668572917381    1.74397958691358    8.24314351923569
H         0.03529546990064    2.79603588928840    8.45157269039520
C        -0.93383491779222    1.09510175221751    7.62420626730059
C        -0.82245575086608   -0.25076821742220    7.30475229253289
H        -1.62128061381918   -0.79765728202995    6.83296911286383
C         0.36062989408329   -0.95170409685110    7.56875789329407
C         1.43271943351984   -0.29879971007449    8.16109886871096
H         2.35613030599775   -0.81403422024364    8.36751550556794
C        -3.13095163961818    1.28285493262769    6.73379264001244
H        -3.86025123214528    2.08465651777589    6.63716648116452
H        -3.56195147372004    0.46901445318491    7.32299108036634
H        -2.86099007317479    0.91552130101213    5.74032128885611
C         1.50741665336261   -3.03065899860095    7.39193440158475
H         1.25879513748720   -4.01755709105206    7.00696853902393
H         1.76468354533830   -3.11109352447547    8.45227328888505
H         2.35811998719950   -2.62882813700434    6.83430834738201
C         7.42935651148942    4.48094080856612    8.81332605774383
H         7.70679337164677    5.53130445090265    8.84772894124662
H         6.93991167618862    4.28514285360374    7.85710592347487
H         8.32982239368816    3.86982673392786    8.85449983819607
C         6.50845829303865    4.12555714095581    9.93346379208165
C         6.17141459199033    2.75861723530974   10.17286212547377
H         6.62221952302453    1.99071353206657    9.55211878160519
C         5.35932329936926    2.39949968502154   11.25677624528404
H         5.19060673842502    1.34845508921674   11.47485237039732
C         4.82205462186207    3.38124544093210   12.13919216444087
C         5.12341320467893    4.72784017133506   11.87026670959869
H         4.78072598364598    5.50166660409105   12.54638756145682
C         5.96766730536954    5.09521327610950   10.78856965314122
H         6.25018440050113    6.13565614477526   10.66791152169581
C         4.08946470196044    2.93948772015362   13.38345925656714
H         3.57381718229933    1.99830878753427   13.15760667840067
C         5.13003347180534    2.67007102135984   14.47849636438390
H         4.63486721261252    2.32085529987871   15.38009257421626
H         5.67576484407619    3.58069923344315   14.71491553041793
H         5.84349154854238    1.91300927770265   14.16114570014461
C         3.05122133150754    3.94951802845967   13.86986397933771
H         2.43985073009845    3.49605002433957   14.64510185878958
H         2.39673556513626    4.26014105173277   13.05714678672133
H         3.52690770876179    4.82866364476629   14.29642887939870
N         2.51488814111712    2.75136795936106    9.84972023019806
O        -2.01897963597014    1.85997011065148    7.38837863688225
O         0.34941625658377   -2.24746857546882    7.20004292825515
Cl        4.18127243332452    3.78458311025995    7.65575160529095
Ru        4.17828196398300    3.87725740332687    9.98645032580891
S         2.58025154895408    5.64815419469884    9.93648438282287

