83
CSD_code = KUCWAH | q = 0 | S = 0 | Stoichiometry = C41H32Cl2O5P2Ru | MND = 6
Ru        2.08722445281962    7.78563173461819   14.35643617511969
Cl        1.30597719041852    6.60216813466380   12.49324872018533
Cl        2.45658470068894    9.01418209376332   16.31395319764911
P        -0.51414403894041    8.87591965049038   12.83502967953117
P        -0.27596369143336    6.54172450141904   16.48602667963434
O         0.17832334281338    8.74251125367669   14.15231632891476
O         0.90863835997656    6.48440603788015   15.58715813506943
O         4.49567856893151    6.10539801110092   14.87263844938590
O         3.76694417338189    9.64817213096431   12.74714450638197
O        -1.44726072820640    6.25904095711526   14.03594432870784
C         0.59397773685664    9.59475483706585   11.57389496539531
C         1.04064491195841    8.94226354649508   10.43136356134731
C         1.93589559169345    9.57668743872672    9.58874852634214
C         2.38452683409686   10.85591033836604    9.87405764212691
C         1.93555448642386   11.50952027560204   11.00920626795628
C         1.04129692433958   10.88129458931567   11.85671226956109
C        -1.77927294510281   10.16064819708695   13.14504308234640
C        -1.46737916858317   11.11157297985167   14.11078053506339
C        -2.34117935166959   12.14797540627137   14.38239798612362
C        -3.54502223243084   12.23179731641031   13.70390705676733
C        -3.87258032156989   11.27227441741306   12.76036892531476
C        -2.99300108770049   10.24243903306896   12.47631258136903
C        -1.47751619024644    7.53165775020020   12.07073818198052
C        -1.87651635212597    7.72763683931110   10.75650135897907
C        -2.61254858386418    6.75829801748233   10.10313144140818
C        -2.94595810159600    5.59269474546134   10.76544519748598
C        -2.57640714531025    5.37209612970064   12.08684964450623
C        -1.84281554214638    6.36139436077973   12.73985988311481
C        -2.95173494546354    4.06792542312775   12.76725212900398
C        -4.47956909824127    3.89330176917475   12.73241684497716
C        -2.25892135798355    2.91155596650081   12.02667391953549
C        -2.48643511249807    4.06858389143852   14.20821165266529
C        -2.74810243260929    2.99750424482396   15.05614726243120
C        -2.31999021058249    2.98479853079101   16.37144795103577
C        -1.60141863305661    4.05417273077390   16.87809838213481
C        -1.33311398944465    5.13283367086803   16.05745072349941
C        -1.76714878703378    5.13630615899367   14.72920172270743
C         0.24597833961827    6.33700123560320   18.20719894934527
C         1.59563369107126    6.16689073288302   18.47694987120746
C         2.02057593431919    6.02394031974736   19.78615091037044
C         1.09682740308278    6.04692151866298   20.81782908016095
C        -0.25271499236176    6.21947282058718   20.54686723109233
C        -0.68116611735885    6.36981116636642   19.24166731328458
C        -1.32998946992752    8.03190390112069   16.54534069518457
C        -2.66093100278888    8.02942064075039   16.15018199027642
C        -3.43379682596426    9.16436558321148   16.32106848235470
C        -2.88955438405274   10.29488614828915   16.90563175864519
C        -1.56575699976085   10.29338893559369   17.31465453601223
C        -0.78589901299360    9.16482111528369   17.14097384672728
C         3.09211337997538    8.94701954107112   13.34583071480025
C         3.59177669862102    6.76340412850499   14.64728222200514
H         0.71523644715435    7.93556571940392   10.21917351807106
H         2.29148798063825    9.06275910416967    8.70822065902607
H         3.08907057885317   11.34098125658410    9.21515328962959
H         2.28672018759747   12.50417702307434   11.23965558625699
H         0.69406224149466   11.38521820388052   12.74847398719707
H        -0.54364656929334   11.02100530608755   14.66484746400867
H        -2.08235201420951   12.88851102613359   15.12461565877412
H        -4.23120356376948   13.03908789429851   13.91384095818984
H        -4.81730292945031   11.32724532375438   12.23913325221020
H        -3.25958570010043    9.49939843813793   11.73923222345727
H        -1.59802109231497    8.64009898820436   10.24970713576376
H        -2.91691810706722    6.90585598406465    9.07828130268267
H        -3.50512787068293    4.83566779534466   10.23804191886283
H        -4.96434945291738    4.71433543925690   13.25800318982090
H        -4.77045841978746    2.96129600074740   13.20873496808183
H        -4.84432864981526    3.87806981801799   11.70951871230658
H        -2.58841858008222    2.86451477041827   10.99238840243119
H        -2.48346492441580    1.96121677818828   12.50379198355104
H        -1.18096547901358    3.05898367928130   12.03770196031949
H        -3.29619976825869    2.14726339927805   14.68003355808279
H        -2.53848127207974    2.13463858954373   16.99917768410881
H        -1.24830730001114    4.05457565788375   17.89848763454428
H         2.30144569593228    6.16503225591307   17.65712477544798
H         3.07112567986363    5.89984011508492   20.00138381215681
H         1.42754261604998    5.93610563036531   21.84006599882048
H        -0.96818315678162    6.24236491297822   21.35600193911710
H        -1.72896641855624    6.51829717267316   19.01611276464354
H        -3.10412587103728    7.14233061032997   15.72122051018045
H        -4.46685370288533    9.16244444260464   16.00382590973575
H        -3.50156748767875   11.17363750935020   17.04692547915237
H        -1.13850152558613   11.17133204675565   17.77618245538939
H         0.25107455998237    9.16044820962793   17.44999781082741

