95
CSD_code = KUCXUB | q = 0 | S = 0 | Stoichiometry = C38H43B9O2P2W | MND = 9
W         9.37855834669723    0.89996348932262    4.76182911058216
P         8.68240531335258    0.33739826001818    2.46023627582270
P         8.61118416690447   -0.22566658663977    6.82788848938556
C        11.60169922925975    1.53581860542364    5.44836135598338
C        11.39222756014635    1.90614099498819    3.96409346971605
C        12.33704726312506    0.25554399102157    5.84294579698714
C        11.95657100661537    1.01992118680012    2.85218684790366
B         9.98685711755169    2.87201624970823    3.73842187119800
B         9.30930893593877    3.15525873620462    5.32859826785015
B        10.36876727475777    2.18416266668242    6.38717840863371
B        12.66397977394131    2.77331825246193    4.83722529118477
B        11.63690465616836    3.59942047262630    3.70150954077442
B        10.36874078121185    4.41731596044353    4.59079255268638
B        10.55634340760355    3.97975698939285    6.29064853873882
B        11.98139106766915    2.94490981921115    6.41995101469637
B        11.99066821968591    4.32523272204624    5.30135030363776
C         9.93979999453440   -0.98037819475264    4.52869660166579
O        10.35364476616615   -2.05903994419647    4.36905170547950
C         7.41759304126658    0.69553666948037    4.78279873115120
O         6.25961647273490    0.59195910937828    4.85076429502231
C         7.84165201189958    3.68189550195542    5.85281071628919
C         7.77689414665674    3.54533263136277    7.34624796369370
C         6.76144052251740    2.81776462314027    7.95121923142346
C         6.72775799604460    2.63321481149127    9.32486882435959
C         7.72497149942469    3.18022560677006   10.11027175105075
C         8.74106260670863    3.91178020417985    9.51658528567258
C         8.78485867447417    4.10813192021952    8.14442755196450
C         9.91795969883339    4.85532958485894    7.50255673106717
C         7.50447686484197    1.37415812928763    1.52538244668188
C         7.26409402827095    1.06987497426903    0.18843679081499
C         6.34722493214042    1.80709838586339   -0.53611580147144
C         5.66517861284590    2.85122318693536    0.06936553057376
C         5.90561151691057    3.15920027303650    1.39793095926508
C         6.82352762564376    2.42283566024160    2.12667603532711
C         7.91198482963868   -1.28956099584379    2.18224455103968
C         6.54143790318859   -1.46399577813588    2.35535899826845
C         5.97388693186463   -2.71217781395294    2.17700207914562
C         6.76716580392071   -3.79537568230937    1.83334176231118
C         8.13159192263526   -3.62810525014960    1.66016013575742
C         8.70203273832988   -2.38029997610887    1.82897226682539
C         9.70743391187548   -0.94466697107409    8.09964733265073
C        10.33648763587540   -2.16095015751045    7.84936327697518
C        11.17763106922564   -2.71470022781324    8.79668337490199
C        11.39788998410087   -2.05618663128094    9.99620854904069
C        10.76978751621471   -0.84783283032125   10.25094963379661
C         9.92435325181297   -0.29124055478347    9.30807138269100
C         7.38986559518881   -1.58292949498491    6.76150771342886
C         7.19169534613146   -2.36108807679861    5.63071344924885
C         6.27426654635346   -3.39757570322540    5.65235552312438
C         5.54904525674500   -3.65898609973857    6.80179354612717
C         5.74035707004745   -2.88234901402893    7.93438272458786
C         6.65843347346557   -1.85055106879514    7.91625939593149
H         9.61554961546382    0.20306394278412    1.41112680476143
H         7.89191441703505    0.59416591356079    7.70105966537444
H        11.78570332865961   -0.29943748371646    6.60552140286642
H        13.31677638639306    0.48457598659947    6.26564193088206
H        12.50464166403488   -0.41258403774317    4.99697355405389
H        11.64179924165074   -0.02624480229048    2.92136127502346
H        13.04775494011021    1.03214671511659    2.84547855065642
H        11.62776960117955    1.40442045818923    1.88542324540532
H         9.54786784840016    2.92944010377291    2.62710165124985
H        10.17185341496626    1.71895741384229    7.46804150219021
H        13.76570711185036    2.43275404327563    4.60571760338716
H        12.06873543577164    3.91675013181403    2.65329247259947
H         9.89755355433656    5.43158084584932    4.22116634585857
H        12.65188910979996    2.76342968995667    7.36936154631659
H        12.68739049223090    5.26091678613013    5.43903886738215
H         6.97113814248314    3.17726178652043    5.42332904232764
H         7.73204342800431    4.74258713442111    5.60541493356972
H         5.98105531321748    2.38401363445647    7.33801941197560
H         5.92800825682601    2.06098532688163    9.77519168850268
H         7.71367578168301    3.03856683552173   11.18232542496666
H         9.52154985425247    4.33421817554853   10.13525044771318
H         9.52214177667790    5.79460311482864    7.10504839257649
H        10.64487760559084    5.12568853479785    8.27093845539211
H         7.79901662274994    0.25108733645850   -0.27645686874036
H         6.16314848307099    1.56891573583252   -1.57345851203671
H         4.94846429080297    3.42606251928626   -0.49801538199046
H         5.37887479008289    3.97568536742124    1.86835120942132
H         7.03010259202640    2.66863880919499    3.15878117604686
H         5.92426377812038   -0.61937659945336    2.62669581907850
H         4.90931856279847   -2.83962101761506    2.30707917306431
H         6.32235160686076   -4.77001213551825    1.69529949284598
H         8.75067989808094   -4.47040946138166    1.38860546266899
H         9.76613125567986   -2.24515651223324    1.68592835115373
H        10.15733290760418   -2.66992605415328    6.91173690710530
H        11.66220774460049   -3.65975436084551    8.60027365213218
H        12.05743226222567   -2.48769188581249   10.73437484479835
H        10.93766720213248   -0.33787181596568   11.18786398307526
H         9.42992915418611    0.65141516296512    9.50297542928752
H         7.74614976495737   -2.14814242882937    4.72714537148896
H         6.12678559815125   -3.99683440954638    4.76623039928435
H         4.83094594733901   -4.46547660457357    6.81643059965864
H         5.17085827491826   -3.08225068137217    8.83009019907434
H         6.81457702394561   -1.23902383025661    8.79573629610841

