67
CSD_code = KUDBES | q = 0 | S = 0 | Stoichiometry = C28H34N4Pd | MND = 4
Pd        0.81751910365968    9.42031401266057    7.88450148548203
N         3.41252423093276    9.15000262593147    6.24794164242159
N        -0.90224223992070   11.87481747243977    8.59452087474652
C         1.60983960408092    6.34717088840612    8.62291680095950
C         6.37129667442566   11.00733587298912    7.34486687963696
H         6.25850240555456   12.09092853635789    7.29500598766674
H         7.13525853395021   10.70631233168380    6.63364303577997
H         6.71144235519780   10.75024078143685    8.34853298178258
N         3.94355674354249   10.54014007883021    7.78306481913044
N        -0.86139543255487   11.90658363800396    6.45715355463914
C         3.83160274174641   11.40050399723916    8.92467044997506
H         4.04574766131685   12.43777763252374    8.65710013360207
H         4.51467853141299   11.09063595311685    9.71855554040206
H         2.79987997560324   11.32182506536324    9.28184887447617
C         5.54420472456462    8.82969718133004    4.96607596104622
H         5.56063675186498    7.74413904369683    5.06659409903044
H         6.56660609212985    9.19589396230358    4.99377125122971
H         5.11479970610954    9.07113238880963    3.99325038052457
C        -2.31947349866004   13.86330197478032    5.86603140289226
H        -1.57335033669177   14.36084757591620    5.24545580197282
H        -2.90046999126502   14.62179060776808    6.38297351238881
H        -2.98601083554141   13.30466544513581    5.20814272356174
C         2.62089987139221    8.24284372338337    5.46453997215996
H         2.57871408786480    8.55921702006322    4.41964348748042
H         1.60300109139717    8.25334778436771    5.90034843967788
H         3.02413140586759    7.22868258588580    5.51599561315856
C        -4.09946091075991    8.68551009524246    8.92428513735379
H        -4.84468457030199    9.31906995084806    8.46207448480981
C        -3.50636688166408    7.01468907162760   10.53950065269333
H        -3.78910075012159    6.34346687566137   11.33883982846496
C        -1.81646338568721    7.92187531178396    9.07971420942813
C         1.97036166006517    3.96473689014699    8.56219570600779
H         1.57601587942105    2.96127994517324    8.47864278806161
C         4.74569234437022    9.44225246969829    6.05935160715504
C        -2.39346092338594   13.80011369366609    9.19399687643078
H        -3.07999070106589   13.21056131594192    9.80219823130869
H        -2.95995202602462   14.57321914959108    8.68255758731159
H        -1.67750666698289   14.27881155564176    9.86282866717328
C         1.11029251112035    5.04382570901178    8.52160457293648
H         0.04617624891558    4.89464990586734    8.40183872496746
C        -4.46327796699911    7.82743472399113    9.95101483737739
H        -5.48843631076946    7.79140066379499   10.29121941364511
C        -0.64512034994967   11.45025690599992    9.94245838866985
H         0.02525764744796   10.57149123275743    9.87524659663335
H        -1.57149039992120   11.15895314869861   10.44319257359837
H        -0.15996530185597   12.24185367358403   10.51839490282607
C         2.98722755532058    6.53045784401859    8.77485152951977
H         3.36948502083410    7.54192150122355    8.85528043561139
C         0.71255645502115    7.45839721111124    8.56743469057487
C        -2.19511277619855    7.05306982641687   10.10945115515042
H        -1.44720059951022    6.42147493257182   10.56843223780352
C        -2.78968813382135    8.73676795635691    8.49426502729239
H        -2.49216863980085    9.40685874109309    7.69545171142391
C        -1.66751063260496   12.95761252973909    6.84745799524908
C        -0.45423879884832    7.96275420893929    8.64904101709601
C        -0.54901365700983   11.54206223964352    5.10601703233826
H        -1.45399917683281   11.29575718286215    4.54638607379596
H         0.09827257820294   10.66074917409596    5.15625447624168
H        -0.02340029704788   12.35054747927881    4.59270011375628
C        -0.38693942114948   11.23733407514423    7.52482530133392
C         2.91172249657943    9.81917389558502    7.30512371688708
C         3.33495396834788    4.15871367699104    8.71323742525980
H         4.00275917162677    3.30961326457186    8.74568773605407
C         5.08519042757978   10.33020417010700    7.03511481151403
C        -1.69458745847499   12.93409592833535    8.20927401854991
C         3.83853727476714    5.44600861605361    8.82313100601642
H         4.90263553928905    5.59982507672828    8.94328099579092

