66
CSD_code = KUDDIW | q = 0 | S = 0 | Stoichiometry = C24H37N3PRe | MND = 4
Re        0.36997927765759    2.87035205589045   16.04922411218668
N         0.79443181392983    4.43285063540690   16.75644986634523
C         1.03076894022121    5.76367426837576   17.14339238865251
C         0.13308946186640    6.11747780318059   18.34356580889940
C         2.51187209483342    5.95681349621787   17.51867101878976
C         0.67596751181044    6.67163309764386   15.94774970708845
N         1.61818313821023    2.10029573044724   15.06587357913022
C         2.63302230522847    1.72349250468844   14.16623157144899
C         2.97243783166200    0.23562862224566   14.37771768918094
C         3.89328740533803    2.57749561091476   14.40035288470834
C         2.11676970133986    1.93227985577233   12.72880353356834
N        -1.31371056549799    2.57428192410679   15.60606167216619
C        -2.60161264595087    2.42998798447645   15.06472422419774
C        -2.96483828391766    3.73233949293785   14.32284822113103
C        -2.64517425144894    1.24019138598612   14.08793967960519
C        -3.60209091134379    2.19814007842913   16.21309863718884
P         0.35341267845097    1.53885382798327   18.21005628087348
C        -1.76550576840058   -0.24458135988843   18.47727353554511
C        -2.56380617567728   -1.31770174553408   18.11874844880953
C        -2.24661517875358   -2.07562100642086   17.00473245332320
C        -1.12716650986361   -1.75974715679145   16.24852726359078
C        -0.32789079613149   -0.69097536563909   16.60371012513281
C        -0.64022647805225    0.07742943281302   17.72462485772608
C         3.12148583385015    1.67797227021716   18.11573569775014
C         4.41076458915397    1.19213654331408   18.19212615456056
C         4.63299934288332   -0.16129178442487   18.40051910697266
C         3.55565476439557   -1.01830552069856   18.54746265590190
C         2.26078431785615   -0.53662803779024   18.47293477928050
C         2.02707107880021    0.81577998296902   18.22848563375072
H        -0.91178511479791    5.97987089216466   18.07446468894713
H         0.36122740306503    5.46107520082460   19.18087594671239
H         0.29345304630547    7.14963613026162   18.64564508327409
H         3.14561957509328    5.63848172484379   16.69336904203183
H         2.71467787120438    7.00165857099675   17.74084757443581
H         2.75511673214619    5.35804040854760   18.39412093939734
H        -0.35950563326306    6.50608468222873   15.65707336132628
H         0.81389932281348    7.71610696940717   16.21610211312768
H         1.31361546615886    6.42925746303814   15.09999843031784
H         2.10320233858359   -0.38204152821993   14.16116454181507
H         3.78397368347715   -0.05659473361234   13.71572733825258
H         3.27832472147716    0.06517392574090   15.40861976229808
H         4.27709049594985    2.39858548982071   15.40223038869320
H         4.66434702814977    2.33152462322347   13.67410324672444
H         3.63912172045741    3.63174285389504   14.30928614098860
H         1.22232089303214    1.33463824056753   12.56608108551442
H         1.86193517908887    2.97999560298345   12.58144387293289
H         2.87815558529092    1.64186964731894   12.00896479408045
H        -2.23402320955074    3.92237177846677   13.53895382853570
H        -3.95466322324750    3.65003092173084   13.88056505354186
H        -2.95016229907891    4.56888974623130   15.01815937674084
H        -1.91938563955782    1.39407894504366   13.29189762877442
H        -2.39192734491169    0.32182080480293   14.61434025039290
H        -3.63645023452651    1.13853022825435   13.65256184975062
H        -3.53894848297222    3.01460840665082   16.92925059337248
H        -4.61461121814130    2.14202614159251   15.82084074024973
H        -3.36690503154916    1.26805333067365   16.72668693231461
H        -2.01254619546375    0.35416632880699   19.34342251266702
H        -3.43753015761314   -1.55959852993841   18.70679905128952
H        -2.87264300430987   -2.90899500329819   16.72079783617986
H        -0.88389623084161   -2.34791483426862   15.37475823930962
H         0.53585071380507   -0.42781489475523   16.00732451053938
H         2.94156726453101    2.73186554532742   17.93955303806265
H         5.24927267841042    1.86660435188717   18.08876673506774
H         5.64181161238622   -0.54370179960196   18.45244670155540
H         3.72359623235694   -2.07151592605283   18.72210702957308
H         1.42875893358494   -1.21526633239583   18.59950815372482

