35
CSD_code = KUDFIY | q = 0 | S = 0 | Stoichiometry = C13H13CuF6O2 | MND = 6
Cu        0.25732017035202    1.36875269186746    1.34153691432102
O         1.75579711390796    1.97542585868902    0.23944226084712
C         2.90441160744417    1.70631982245016    0.63752333317276
C         3.32592016936769    0.97548722550308    1.74770113163394
C         2.46578588726528    0.37073304550834    2.66329087002397
O         1.22157507240733    0.35136970117852    2.70822374695538
C         4.06376230973053    2.27211413179410   -0.21386417618450
C         3.19377280379103   -0.38190382111304    3.79997854611137
F         3.63044662958896    2.92002760211583   -1.29285990532897
F         4.89328328533373    1.30595183324905   -0.63449158150982
F         4.81040141208182    3.13630151902521    0.49382574195897
F         3.98782169270391    0.44284019982702    4.50264051028694
F         2.34611391425893   -0.93868199015481    4.66216864995175
F         3.98103346794060   -1.35862686174368    3.32614025458005
C        -1.43528207163063    1.68638239972748    0.32753029294773
C        -1.72555242803378    1.04570153587426    1.50198633125669
C        -2.35176734225903    1.68475726923118    2.71670727863198
C        -1.34286228307463    2.32715845415277    3.68575466276573
C        -0.22673786479199    3.11666873232349    3.05812096121949
C        -0.27578047930421    3.89533534485633    1.97537494117059
C        -1.48759461162485    4.15198647048502    1.13233859507757
C        -1.63961345768220    3.13863611916588   -0.01544708046608
H         4.38709159838696    0.86477805894254    1.90461079110851
H        -1.28364940812274    1.06719491461364   -0.55141585633439
H        -1.77027857629284   -0.03731660700741    1.48072503289516
H        -3.08865969600337    2.41695929251400    2.39016644791713
H        -2.89156625270691    0.91589068245995    3.27250528214006
H        -0.88265266168129    1.53039676327737    4.27296849742467
H        -1.88601754669818    2.97293799254351    4.38306600866623
H         0.69953891688756    3.08495023538880    3.61926642591989
H         0.62227353671542    4.41655934216567    1.67149417223660
H        -2.37706415599262    4.15801971540877    1.75857342545815
H        -1.40061311357687    5.14416302042611    0.68493464089928
H        -0.91681652381176    3.38937547151572   -0.79462433812689
H        -2.63754111487978    3.24995383373672   -0.45279280962771

