52
CSD_code = KUDHEY | q = 0 | S = 0 | Stoichiometry = C23H24ClN3Ni | MND = 7
Ni        1.65170148562286    2.29195730941875    3.68057456536653
Cl        2.84864593291197    3.95283064231370    3.20585272498647
C         1.25172242390233    0.42092948140625    4.55500513413380
H         1.02735000411537   -0.53125824150867    4.09864899922406
C         0.25567233110293    1.35645715370724    5.04131771108676
H        -0.80950873144399    1.19978976218955    4.98867622432147
C         0.90881994225423    2.35584130468130    5.74416320405046
H         0.45680596438413    3.15613265559599    6.30744521630613
C         2.31238935575017    2.09872868843160    5.63399971212374
H         3.08140667158132    2.65641406725101    6.15056781906511
C         2.50034332828163    0.83665478448432    5.01338983459703
H         3.43043928683073    0.29830763743751    4.93843705842417
C         2.90168230433868    2.11989631290099    0.58149779657571
H         3.38016383680511    3.06017112227802    0.87792315511242
H         3.09619683975372    1.92960261055320   -0.47887248793055
C         3.46073898200924    0.99561609671339    1.41529671132172
C         2.85885744101104   -0.26197147343400    1.42587658371270
H         1.94480725768740   -0.44445874056410    0.87201027730673
C         4.46208941262610   -1.14166630463734    2.76388945771773
H         4.82102071298961   -2.02213033608892    3.28124394017744
C         5.14563641333706    0.06321177208649    2.83226076639416
H         6.05192389284918    0.15006597966866    3.41183478635358
C         4.63314678677204    1.15337611597107    2.14755573077231
H         5.12625443151407    2.11360090355953    2.18014768305202
C         0.84663268489809    2.27692739241607    1.95506971831999
C         0.57700259660382    2.39052740740563   -0.25998342959992
H         0.87338661592660    2.40097107598917   -1.28861098491808
C        -0.64668990866220    2.50481272745615    0.30526362446133
H        -1.61463435371709    2.64056171837619   -0.13142949160763
C        -1.53918755539874    2.47881357027149    2.58927266414989
C        -1.74460752437834    3.62625024344751    3.35548659479392
C        -2.81452359107865    3.64055991125256    4.23784947626086
H        -2.98268169637803    4.51971407096790    4.84267545178147
C        -3.66611756045291    2.55247496171571    4.36745011294838
C        -3.42887986891163    1.42157498914311    3.59786835798666
H        -4.07507894137668    0.56187708273966    3.70340922602417
C        -2.36890539309669    1.36351076063432    2.70587222031125
C        -0.81037932407896    4.78734306153549    3.24655880424575
H        -1.14940364137892    5.61847872236843    3.85770090753524
H        -0.71229185324446    5.12079021639136    2.21442541751434
H         0.18846921086072    4.48794641675953    3.58923707515329
C        -4.82778996174046    2.60171810530915    5.31165281070784
H        -5.70243119420644    3.00635475858371    4.80127622574076
H        -4.60898803047025    3.24241562093690    6.16238150029479
H        -5.07881801457884    1.60709310283586    5.67230067292699
C        -2.08906074100740    0.12018954870604    1.91654133651494
H        -2.70914474504101   -0.70036561359018    2.26728319423562
H        -1.04222874534229   -0.16408457883037    2.01980502839196
H        -2.29196330259807    0.27414075089042    0.85686723762485
N         3.34126439954580   -1.30074226168842    2.08038780656427
N         1.47456071841526    2.25068438160256    0.75895243147776
N        -0.46371658610359    2.43396255199790    1.65899340588417

