56
CSD_code = KUDKEA | q = 1 | S = 0 | Stoichiometry = C19H35AuP(1+) | MND = 3
Au        2.32500849727381    4.63130822388228    2.18113425568822
C         0.72043200500645    5.24770531717673    3.68414056250600
H         1.20253471768798    5.03207368134213    4.62338087698167
C         0.95283438117172    6.32513918668598    2.87169153017583
H         1.65491367384631    7.12410994216100    3.04434308339045
C        -0.29891275856732    6.51698322153682    2.04134969298943
H        -0.20838406964930    7.14476113635938    1.16062281898011
C        -0.75365649113122    5.05985556469873    1.85805428553715
H        -1.76530325100185    4.98274011422985    1.46701705862656
H        -0.08204272968847    4.45463747187387    1.24495725076353
C        -0.67736903162133    4.76105610358572    3.36441198898838
H        -0.93702773565499    3.76479179600934    3.70803161399864
C        -1.58145335881113    5.90013762452268    3.85071964818839
H        -2.24206836122843    5.80558094505933    4.68887545287338
C        -1.35746624772932    6.94025890309866    3.06669913801202
H        -1.78653066631753    7.92155194332886    3.09383927190469
P         3.91476297991484    3.42460912625733    1.01099093790157
C         5.58744805943162    3.57136556526358    1.92063412830471
C         5.33523289375984    3.43473031959224    3.42752609620897
H         5.10790944451992    2.42163010748052    3.73487408569181
H         4.52241817423377    4.08934170304713    3.74659978696033
H         6.23342817298992    3.73778660151722    3.96231483143382
C         6.11954062188089    4.99203297504404    1.71004866482138
H         6.95246470361763    5.16325726035283    2.38979758028979
H         5.35272123743835    5.73297462085849    1.93514108200079
H         6.49515699815840    5.14474437029753    0.70370687049975
C         6.64700860930220    2.56441954749651    1.47796186684009
H         6.82135944981327    2.60209567726184    0.40697027927143
H         6.38586781622811    1.54781006076444    1.75641821927047
H         7.58552951146764    2.80537607539332    1.97475923078450
C         4.04338536613760    4.16128970992297   -0.74813466529936
C         4.00760772224547    5.69102373312123   -0.63785763754801
H         3.86318466842026    6.11091265753927   -1.63164414362135
H         4.92210518024548    6.11478819955304   -0.24208138033764
H         3.17274511717877    6.01690551539933   -0.01509286889563
C         5.27750590594502    3.72761999097895   -1.53610994696327
H         5.35763494171511    2.64696701396707   -1.60406055702995
H         6.19416502871725    4.12316725592927   -1.10874455896067
H         5.19831752898410    4.11792021280503   -2.54969525470181
C         2.78370607555674    3.76769509192696   -1.52542833610325
H         2.74414428821277    4.34144034090084   -2.44984842125407
H         1.88452361652520    4.00178857822807   -0.95571261510584
H         2.78167535839812    2.71870650017454   -1.80272979688438
C         3.35945966641677    1.59837839300665    0.93473236267679
C         3.55950781424968    0.97623301896984    2.31991634029003
H         3.04226610056213    0.01888458186162    2.35503515184669
H         3.13252235045325    1.60962573321409    3.09705870797896
H         4.60444796177459    0.78105530663874    2.53675713253253
C         1.84789016020538    1.55941305392271    0.67730479745384
H         1.50624556183689    0.52939435989392    0.76243772460078
H         1.56650360900958    1.90932577918872   -0.30805129864223
H         1.31470864109219    2.14765356448751    1.42529857247054
C         4.08866325942510    0.75499988279830   -0.10914239617345
H         5.16694746348401    0.81068612860602    0.00542923349142
H         3.82650596620243    1.04361580690576   -1.12276789356805
H         3.79607340066705   -0.28625559611992    0.01711955785707

