53
CSD_code = KUDKOK | q = 1 | S = 0 | Stoichiometry = C16H35AuP(1+) | MND = 3
Au        8.74372426203640    7.02068961235938   10.65401222617018
C         9.36917058942435    9.07562818680426   10.08729032786572
H         9.27948150396387    9.61674376177360   11.01710528089867
H        10.37804506009117    8.92416886824308    9.73415640285751
C         8.33283281711645    9.07277989339539    9.20182936770493
C         6.99384793397321    9.63010676229040    9.55265941736346
H         6.86887236041144   10.58177779309708    9.03503707246780
H         6.89282806786899    9.80977836591274   10.61972377456702
H         6.18901924136992    8.97877891074006    9.21679663484862
C         8.51276193374424    8.66808801399157    7.77683194126743
H         9.47054232209599    8.18341907373603    7.60723738581761
H         8.47007026912791    9.56268426921981    7.15470424489382
H         7.71084758477785    8.01186029057798    7.44390549884880
P         8.33276304138558    4.88705735172714   11.42481170699267
C         9.54069726980583    4.51024961467533   12.85415787973155
C         9.17280630076803    3.29114353441567   13.69721046109399
H         9.98160067746248    3.09705305469513   14.40000594166267
H         9.04268091176827    2.40077397612588   13.08943494474844
H         8.27101556430169    3.45474921233964   14.27985813018707
C        10.93354900352958    4.30844257659620   12.25034799136351
H        11.02568144664895    3.35393846532938   11.74270819801564
H        11.67207088629318    4.31617116377698   13.05007450795678
H        11.18229015688936    5.11796259862018   11.56458695240759
C         9.64223566145946    5.75321785289799   13.74674780796968
H         9.81688728083859    6.64865745196079   13.14793409432751
H        10.49007663361248    5.63441678804839   14.41871382985074
H         8.76651326179925    5.91202147833088   14.36368463690068
C         6.52403713589015    4.81024935629134   12.03584103208293
C         5.97647212050932    3.39837483010334   12.23278642755662
H         4.99404936561215    3.46672020409220   12.69753488252310
H         6.60975325402786    2.80496554701116   12.88533273125911
H         5.85203324321788    2.87377547002687   11.28997799795432
C         6.44059122648746    5.57644279262155   13.35914293494569
H         6.88618636445350    5.02546746877807   14.18063307643313
H         5.39379394654515    5.73479595018295   13.61281422021701
H         6.91095535918594    6.55563737132851   13.27298162910658
C         5.64086430428104    5.58138785091807   11.04709788110001
H         4.65793693627749    5.72377627006481   11.49222609115381
H         5.49413248799595    5.06368566765936   10.10729828185254
H         6.05963996239364    6.56829112418040   10.84358090817979
C         8.60471131432229    3.66997093754104    9.97722470928197
C         8.70923297716365    2.20252410445274   10.38644968387287
H         8.74225736469777    1.59091381412095    9.48607464534443
H         7.85360394471626    1.88146817828064   10.97269234864969
H         9.61668775997389    2.00018715994154   10.94777152373156
C         9.86769981519412    4.08998351054632    9.21514879910943
H         9.85816704288591    5.16088560540982    9.00515035285676
H         9.89367882143308    3.56569328827434    8.26175013358500
H        10.78445080612884    3.84664416926889    9.73755880209219
C         7.44204010276036    3.84243536627985    8.99549558791500
H         6.52039383104413    3.41077662379574    9.37148015296482
H         7.68002727441105    3.32585777192162    8.06726812136978
H         7.28759119582836    4.89483064522662    8.75762038608231

