29
CSD_code = KUDMEC | q = 0 | S = 0 | Stoichiometry = C12H8BrN3O4Os | MND = 6
Os        8.82206807025607    4.35153401484080    3.31690003986804
Br        7.09527919419368    5.99583221668644    3.24544289416611
O         8.50081543862639    3.83263325775636    1.40695107305659
O         8.68599555883008    2.19220634173250   -0.07050099009688
O         7.55267925299015    2.79320139094211    4.03556176554441
O         7.08020685755518    1.50107808943517    5.79796668989900
N        10.13529583386068    5.37008737666287    3.31428690726398
N         9.99701246075844    2.54515567718190    3.18476550782108
N         8.74866791446107    4.58003531403153    5.48101235589441
C         8.90836293714983    2.68131159573426    1.01018159499214
C         9.74435615936562    1.91479769266147    2.03945809278276
C        10.20773185013123    0.63148346228065    1.78754312257777
H         9.96484697028703    0.17791977033857    0.83889182539991
C        10.94469888963561   -0.01057781586572    2.76721053058997
H        11.30493667885065   -1.01656184168282    2.61498121940256
C        11.21055805786981    0.66247039129167    3.95268784582120
H        11.78519595573867    0.20188684906506    4.74006633398163
C        10.71860140908301    1.94485348686752    4.12288552110688
H        10.90767305461553    2.50957050826587    5.02649695899957
C         7.48809707996233    2.50815439788019    5.26725797223746
C         8.05556806946105    3.65228518296878    6.13943362620039
C         7.83013429917785    3.71697717987729    7.50526096217595
H         7.26565592048208    2.92305285285600    7.96925585314909
C         8.32412362953204    4.80513071757578    8.20304810387810
H         8.15149358576888    4.90246895066093    9.26393329918308
C         9.03835087123494    5.77362159894753    7.50824729430062
H         9.43508396112825    6.64024719757257    8.01149290902733
C         9.23546706123223    5.62966166797561    6.14736860429515
H         9.78404297776200    6.35658247545947    5.56051208647810

