75
CSD_code = KUDMOM | q = 0 | S = 0 | Stoichiometry = C38H27ClN3O4OsP | MND = 6
Os        2.20555391654274    1.54646628977397    5.77570291646292
Cl        3.91711444222088    2.86162386047631    6.19820668761310
P         3.10865193393208   -1.22579800623959    4.67383343509518
O         2.58694953216584    1.44193261446167    3.72459410309016
O         1.52674516523872    1.67299456244062    1.78480398158429
O         0.77668081190753    3.14371791731784    5.73867788359640
O        -1.07396183966965    3.73128138669089    6.83283694243530
N         0.33939365416359    0.75465156533808    4.95138952007131
N         1.67155843293456    1.72039534469913    7.77682193893896
N         2.80948320261282   -0.23769178559441    5.89776112864086
C         1.54805735238150    1.49096960930373    2.98607890450925
C         0.23365847510494    1.19199159920455    3.71286918014110
C        -0.99742674391540    1.32925104535406    3.05582296773900
C        -2.14589779439909    1.05251481538223    3.74274183819556
C        -2.06053517316096    0.53846582649479    5.05403245178030
C        -3.18972280099352    0.18692340389086    5.81983345416104
C        -3.04509646805381   -0.33887387143458    7.07370922038235
C        -1.76617479741277   -0.56413132281640    7.60610112682169
C        -0.64718701865073   -0.22334543048344    6.89698377773193
C        -0.77002540748068    0.36679926495660    5.62334580331615
C         0.00402375223997    3.17379456233809    6.74995158817875
C         0.56101085586974    2.42272372684968    7.96358397942060
C        -0.06858397402809    2.56074363517519    9.20702989535810
C         0.48036772788079    1.95527141437256   10.30143066517241
C         1.70116278466217    1.26293795876310   10.15667000482781
C         2.36003006550594    0.67045153522427   11.25317602687965
C         3.56194232100086    0.04035247907392   11.08939852885795
C         4.15812605971600   -0.01277634681394    9.82126817213176
C         3.54083734921147    0.54019630089720    8.73123609774088
C         2.29174909171329    1.17831759340730    8.86357855875687
C         3.44759170071460   -2.85305939201732    5.42428724685066
C         3.92763037699179   -2.87990504393869    6.72640895137126
C         4.24530652480729   -4.08634040863036    7.32325812363146
C         4.08876644529750   -5.26886363881841    6.61818567146615
C         3.60761697583297   -5.24432173929170    5.31901239197684
C         3.28775267778947   -4.03905244040819    4.71987120440622
C         4.62216544257744   -0.85772576991531    3.73993937199616
C         5.04052675456627   -1.70739152268674    2.72189874436620
C         6.20726618620449   -1.42524364406964    2.03594597428806
C         6.95835418976254   -0.30914790371158    2.37138723222649
C         6.54926125517743    0.52206796808196    3.40098130481711
C         5.38231439078555    0.24800040483920    4.09249720873668
C         1.75722269522778   -1.57804239812320    3.50504923389890
C         1.79673477038308   -1.25693343795102    2.15581392231277
C         0.67287210498564   -1.46690661834807    1.37460153926510
C        -0.48316719968090   -1.98264243033216    1.93663238581964
C        -0.51856131868455   -2.31239353030379    3.28355640828837
C         0.60128920323798   -2.11338485270949    4.06748029377851
H        -0.98492081669475    1.69380977931162    2.04082689454900
H        -3.11834472334747    1.21549123383102    3.30129045775913
H        -4.16980154001779    0.33957680933194    5.39287324576594
H        -3.91484503806532   -0.59792095111894    7.65822697229353
H        -1.66950943367036   -1.01189686761900    8.58391420072268
H         0.34780600678113   -0.41459364874538    7.27674539121682
H        -0.97579295852503    3.14344708368126    9.24087838477812
H         0.01442564684590    2.01551761510905   11.27391337553301
H         1.89783945169595    0.73903373461835   12.22700170780867
H         4.06322481484231   -0.40566586241128   11.93511811357607
H         5.12071415774757   -0.48821289544126    9.70889245431107
H         4.00307648787295    0.51841363739482    7.75614896217803
H         4.02777418111297   -1.94428599868497    7.25716616352023
H         4.61587130780404   -4.10686581490785    8.33762034672717
H         4.33813928098524   -6.21205009650980    7.08147270091475
H         3.48003335130790   -6.16726173734710    4.77242592226076
H         2.89845256457834   -4.02112814899813    3.71108068408881
H         4.45462894643984   -2.57886389131813    2.46563052998998
H         6.52989997247372   -2.07491372686660    1.23534549275766
H         7.86491590122327   -0.08976972907754    1.82684954209320
H         7.13500636439826    1.38951713884564    3.66475803719359
H         5.04439727682943    0.89584805915278    4.88981008090441
H         2.68974007834967   -0.83190293807399    1.72301777667056
H         0.69917864220032   -1.20845241255610    0.32740592207591
H        -1.36068525267403   -2.12981238190015    1.32463388883806
H        -1.41942874607187   -2.71743676232201    3.72179479963655
H         0.59507599037246   -2.36008637745261    5.12207996282128

