45
CSD_code = KUDMIG | q = 0 | S = 0 | Stoichiometry = C21H15N3O5Os | MND = 6
Os        0.51317191469758    9.26515767997146    6.44778797841404
O         1.94590084767209   10.89403540296747    6.63714271685348
O         2.08538721207737   12.94180259024141    7.51876940283927
O         1.45572346578205    8.70034208808984    4.75157917873636
O         2.24095853166281    9.44332610255146    2.81930482280599
O         1.48575282514953    8.03537635823198    7.57915068455320
N         0.09589971298531   10.17708649645604    8.38892240592191
N        -0.07886422590922   10.86464777068714    5.04496378910071
N        -0.98024953682876    8.53471170219986    6.35060324198803
C         1.69550117460324   11.79157336942929    7.48454932284117
C         0.75729303471686   11.29454442281548    8.60904386059482
C         0.68132211144981   12.01841231505541    9.80750398139912
H         1.24825478049841   12.93398340919172    9.87361268993703
C        -0.08514621911112   11.52711651082865   10.82512111358318
H        -0.15960961815258   12.04115670386365   11.77226541353099
C        -0.78123310120040   10.31492569364038   10.63760484397359
C        -1.57489011283218    9.74272928482273   11.65372641510473
H        -1.64665233377595   10.25944772385804   12.59927419266676
C        -2.23415338402156    8.56403454218479   11.44582082860370
H        -2.83793710684113    8.13154640446548   12.22888961585985
C        -2.12957835689657    7.90978516379615   10.20832560712060
H        -2.65335042241817    6.97931027280435   10.05481235771372
C        -1.37091084598541    8.43851278326854    9.19936301382788
H        -1.28469177784098    7.94606633045714    8.23641154536397
C        -0.67491889038644    9.64793614868457    9.38191291577141
C         1.56445531822793    9.57240798565981    3.81543101200727
C         0.74813275083692   10.84918020782905    4.01974362106691
C         0.91600973858334   11.94394804673605    3.15784075667515
H         1.61193008315478   11.83908886701599    2.34015699025660
C         0.23104440360589   13.09856984085706    3.41828169698367
H         0.37087544144606   13.98229248438146    2.81276346139677
C        -0.67043607589098   13.13966484253916    4.50255322619159
C        -1.41933179721403   14.28629920007613    4.83750637514310
H        -1.29158641627734   15.17777810731224    4.24173433875565
C        -2.28829418325993   14.26547663053476    5.89234218013665
H        -2.85367157869883   15.14858129536951    6.14824365062258
C        -2.46566685209268   13.09254089820116    6.64453600686516
H        -3.17569343346272   13.08798858426547    7.45775743294796
C        -1.75378036878774   11.96183663325882    6.35251564314123
H        -1.89403877253973   11.03824772385763    6.89926365328466
C        -0.82295844886757   11.96764304202623    5.29412124911233
C         2.03154276424308    6.88976641088318    7.01752976474903
H         2.61114548324718    6.38544878300157    7.80072031087297
H         2.69786358990037    7.11588152138781    6.17596022424524
H         1.23747867475361    6.21469162424290    6.66683646644112

