104
CSD_code = KUDQAD | q = 0 | S = 0 | Stoichiometry = C54H45CuIP3 | MND = 4
I         9.46385292900961    5.46411714120575   12.28032856081501
Cu        9.46404174791380    5.46425739312157    9.74725954899815
P         8.01652846120508    3.89127550918980    8.75867371212558
C         8.28557910372680    3.30163278620114    7.05915639286711
C         8.93873267456460    2.08906430548045    6.84146920417111
H         9.19527607852115    1.45918968390842    7.68211983574405
C         9.25122457963554    1.68828374378046    5.55622156002341
H         9.75286973243289    0.74439550830115    5.39871160530257
C         8.92577439629452    2.49332376472082    4.47529975977605
H         9.16555956484873    2.17350046946319    3.47169920760408
C         8.29986530120905    3.71092093880487    4.68749258418443
H         8.05199577534553    4.35028084509783    3.85253778657211
C         7.99302963944125    4.12059211637613    5.97180893591818
H         7.51746787937370    5.07659691055639    6.13298003308845
C         6.39744079187333    4.73812330981852    8.67217682568166
C         5.41523565980556    4.46772176522754    7.72555149227143
H         5.58932165610027    3.73557905867595    6.94972644609343
C         4.21003970278127    5.14348903291143    7.77246617617029
H         3.45243892272667    4.93451075903855    7.03058673509278
C         3.96675157398925    6.08040488252076    8.76466146614234
H         3.02371334702065    6.60667903215362    8.79045504678704
C         4.93071288073061    6.33495462709260    9.72568970139395
H         4.74726334266979    7.05771732927771   10.50739705514690
C         6.13920590995441    5.66458018453609    9.67824252387529
H         6.88732608053681    5.84987462592555   10.43706331610432
C         7.42048746555692    2.36663609060705    9.58327386353712
C         7.65390048562630    2.21553503977632   10.94503754150051
H         8.19793203374254    2.97186110953214   11.48969836322884
C         7.18496219504518    1.09898275459786   11.61418313119561
H         7.37561099286610    0.99141988622876   12.67156602758295
C         6.47539238368328    0.12853704687158   10.92904708088083
H         6.11118000560964   -0.74612139303821   11.44779862709886
C         6.22512366843666    0.28354314641747    9.57437483087284
H         5.66168959688763   -0.46742431008314    9.03898275777421
C         6.68856681239318    1.39780967742789    8.90211691313679
H         6.48592124705125    1.51047750794826    7.84621564970401
P        11.54982671608599    4.99676868474029    8.75885721464940
C        11.92656161350889    5.52495143014473    7.05959448507965
C        12.65093434937938    6.69643185816426    6.84228510446322
H        13.06850487161427    7.23300748597056    7.68310067660999
C        12.84209988025303    7.16772300004682    5.55718406127236
H        13.40936757902072    8.07374364130640    5.39995759437866
C        12.30717984399822    6.48407008504493    4.47604187900855
H        12.46457241738462    6.85182712686809    3.47255734838808
C        11.56480009662670    5.33370234015724    4.68786580771008
H        11.13464877683293    4.79993753371074    3.85274091996778
C        11.36305520783565    4.86290841797295    5.97203746448915
H        10.77212954423439    3.97352929210376    6.13295152662862
C        11.62565904924564    3.17119088411379    8.67191819840697
C        12.35022258692587    2.45572373725914    7.72479443789958
H        12.89687128651447    2.97250556549939    6.94867797778061
C        12.36732782626956    1.07409739662446    7.77157431640654
H        12.92655427743378    0.52243927577065    7.02931048538299
C        11.67800838886266    0.39499415193914    8.76409779800317
H        11.69352364539759   -0.68484457365971    8.78976197782013
C        10.97628438902513    1.10258900458689    9.72560592482815
H        10.44240956278539    0.58236560276774   10.50755828823796
C        10.95286937598024    2.48436720339487    9.67830855026488
H        10.41892215433386    3.03966785969907   10.43750136250296
C        13.16798567903959    5.24244037713809    9.58404492373000
C        13.18178839915349    5.52084366127918   10.94565818954531
H        12.25463932886601    5.61447506530220   11.48997656817395
C        14.38305911491320    5.67250512833492   11.61521552281055
H        14.38060785903646    5.89182464372933   12.67251332511758
C        15.57845091956350    5.54212715716018   10.93060374417865
H        16.51790918435712    5.66371219897578   11.44965976476150
C        15.56968264297890    5.24723517360427    9.57606527934659
H        16.50189679597850    5.13393023530472    9.04109705032315
C        14.37314026994195    5.09187904019134    8.90342221727107
H        14.37711273750661    4.85952516467031    7.84763495222797
P         8.82587911197407    7.50402205392573    8.75815303523562
C         8.18013747178082    7.56573642710275    7.05885433169483
C         6.80339642976752    7.60662102628177    6.84154802126925
H         6.12987917089656    7.69948507458995    7.68238270936398
C         6.29970712495660    7.53648366975495    5.55643184887870
H         5.23141818079076    7.57419248571537    5.39920624627105
C         7.15930803390197    7.41566827323813    4.47528086743920
H         6.76215995062898    7.36803356246370    3.47178545239750
C         8.52677740998599    7.34860812361121    4.68710705565266
H         9.20416078827421    7.24343882868372    3.85196499677796
C         9.03533665355973    7.40938490559019    5.97128579766418
H        10.10107309379034    7.34295746911226    6.13218335615621
C        10.36868823353839    8.48290416136814    8.67100357432303
C        10.62532206383586    9.46843358779886    7.72400298910528
H         9.90405506069341    9.68340865533901    6.94824361851219
C        11.81307746957916   10.17443245564355    7.77045752386998
H        12.01067154589010   10.93478874132201    7.02827723078960
C        12.74631543678571    9.91711967799391    8.76257746411417
H        13.67354049521510   10.47079660754513    8.78801127865319
C        12.48506480594330    8.95532959261499    9.72398651678337
H        13.20288998103779    8.75318416376258   10.50563397204304
C        11.30033880541755    8.24376400392944    9.67699073728682
H        11.08695316838726    7.50343013867802   10.43607964546736
C         7.80384323098689    8.78251447454223    9.58315391012407
C         7.55694724559694    8.65593251461697   10.94503868028525
H         7.94014572767104    7.80660117378133   11.48950247927727
C         6.82483553195404    9.62034314863212   11.61456293098329
H         6.63690696151509    9.50901429832114   12.67204247076809
C         6.33890001570601   10.72009445682684   10.92967253354780
H         5.76384127653458   11.47287374204722   11.44872092864838
C         6.59759920723160   10.85931951690013    9.57486888750038
H         6.22872981155010   11.72277279929886    9.03967094036744
C         7.33048906006801    9.90081113559953    8.90223297773596
H         7.52889045506958   10.01998192377594    7.84623975489273

