32
CSD_code = KUDSAD | q = 0 | S = 0 | Stoichiometry = C14H13AuCl2N2 | MND = 4
Au        7.90864911502923    6.15186285046635    5.31089085709806
Cl        7.06760238806538    6.80682842045249    7.28187574447592
Cl        6.92098135269707    7.92227723886300    4.20164197205508
N         9.16747894575611    4.11582544249269    3.79051188236725
N         8.76956825352085    5.30544250995982    3.64031193588116
C         8.60892579829548    4.45193266735421    6.08789423040245
C         9.11515709482835    3.63097287255369    5.04750676230265
C         9.58830290675513    2.34297912775862    5.33504785971474
C         9.56371031630770    1.88665719958615    6.63228144558842
C         9.07275362629318    2.68650472767447    7.66558626849687
C         8.59140808329422    3.96738304783981    7.36999273195118
C         9.02864669793272    2.18436339509935    9.06871900142943
C         8.78958303732587    5.85643458558322    2.37339557004295
C         8.56597170917668    5.04784107724264    1.25160240959517
C         8.54235497499849    5.60902934796920   -0.00334143588208
C         8.75639693443693    6.97670483041617   -0.18263187201915
C         9.01629082170734    7.76318654232426    0.93548975754977
C         9.03192725939744    7.22163792378072    2.20363820558088
C         8.72927445216892    7.57066816602347   -1.55283325777415
H         9.96168322914179    1.73536982100062    4.52599555169366
H         9.92776870146847    0.89518369889984    6.85856988963774
H         8.20068926321275    4.58713131480052    8.16345561247980
H         9.75962479821776    1.39560504226944    9.22853893220513
H         9.20598283929035    2.99226945670431    9.77426167115613
H         8.03826864457884    1.77711518595991    9.27702017740146
H         8.37890970544225    3.99509486413072    1.40048167561086
H         8.34280990615034    4.98565726108906   -0.86265973599697
H         9.20283188977944    8.81927840043450    0.81253776707221
H         9.25532392553008    7.83776309848928    3.05819572414796
H         7.92191343448870    7.14223859210025   -2.14275795480167
H         8.60416314975481    8.64905308488330   -1.50832222640353
H         9.66644674496977    7.35580820575264   -2.06769715302952

