37
CSD_code = KUDTIN | q = 0 | S = 0 | Stoichiometry = C10H20N2O4Pd | MND = 4
Pd        1.96224557605211    2.69367960023826    7.23970039446927
C         1.84060613153485    0.15158072686265    8.05320948247245
H         2.08574921622615   -0.69341609037856    8.72178796610855
C         0.49797873328359   -0.11903344667587    7.33403389749960
H        -0.28501190912308    0.47364840303916    7.83078727309040
C         0.79292307084869    0.44504423523154    5.92848193490987
H         0.11717207540017    0.01666425630929    5.16678293502315
C         2.23562260058126   -0.07505329620995    5.75658231333365
H         2.23138359828658   -1.15752057554971    5.56919275980890
H         2.78498914743005    0.44969496099624    4.97059298248074
O         1.84520718779621    1.31375183793401    8.71760785006702
O         0.20182546061391   -1.49535542550939    7.34573751388404
H        -0.61963609623370   -1.62969228814077    6.85980608219076
O         0.70945951922446    1.80757307180621    5.89314969068757
O         2.85552641211332    0.19948731877252    7.00289742994122
N         3.22558282202931    3.89709625925189    8.48458770410445
H         2.60924122834360    4.27605201204429    9.20493126278777
H         3.91857004638177    3.30593280785987    8.93813895782270
N         2.30326232546360    4.29011675446373    5.85390680354857
H         3.00663324346334    3.98717543855252    5.17938637115825
H         1.44107519611967    4.48501992162141    5.34964922982853
C         3.81755341180149    4.95640693604945    7.66479627567101
H         4.66389629383218    4.52041362310819    7.11703916222240
C         4.31072621715727    6.13958744574944    8.50616454399239
H         5.06266604423480    5.79412193513798    9.21876351142710
H         3.47088645649336    6.54835515839935    9.07411481182585
C         4.89870011229207    7.23229383217791    7.61715779898201
H         5.77327322354921    6.84264525506162    7.09225737910621
H         5.22571000098008    8.07057976241862    8.23357611911815
C         3.86515113856759    7.70796605429498    6.60102065028285
H         4.30189431203405    8.47261409433517    5.95758504056474
H         3.01846615704410    8.15588172580113    7.12487879564113
C         3.37486571340994    6.53888127472093    5.75072794275559
H         4.21408962868466    6.12615590486931    5.18439742018050
H         2.62546695355534    6.88655096763073    5.03632293655096
C         2.77386547735500    5.43888496441515    6.63355655053032
H         1.91068327317312    5.84021458331466    7.18159022593056

