37
CSD_code = KUDTOT | q = 0 | S = 0 | Stoichiometry = C10H20N2O4Pd | MND = 4
Pd       -6.30113500490245    4.65060303983809    6.74107028245037
O        -7.94120375243641    4.17028084939317    5.57396644239905
O        -6.19001112283875    2.54976574494292    4.76924350778770
H        -6.98328743752342    2.61163205114758    5.35134778343539
O        -4.76260616498337    4.75548887400364    5.40579772463047
O        -7.11841610524865    5.88835222502223    4.33358871169926
N        -7.60315175598697    4.65008943736085    8.46127860324417
H        -8.11974072369310    5.52839781778850    8.39861331517527
H        -8.27745332981269    3.88859902680942    8.44142258758350
N        -4.84406537123715    5.12907528879664    8.19632235805871
H        -4.30653296461149    4.27182929914844    8.32915426830917
H        -4.21423452752236    5.84126988004791    7.83288538866892
C        -7.54580658416877    4.51444322207822    4.34407012693041
H        -8.37524928285484    4.39951906619542    3.61713553064708
C        -6.30117903542894    3.65504138058132    3.91623887303579
H        -6.37161929254649    3.31748862448420    2.87472189875415
C        -5.15220654775575    4.68041053037131    4.10300407915916
H        -4.28526023494178    4.44058250009179    3.46841662203936
C        -5.87548980600631    5.96527692459511    3.65923291320775
H        -5.36824059588830    6.87119468025794    3.99149579825866
H        -6.02864765539414    5.98653163274694    2.57010124185715
C        -5.53022004664516    5.53748143348335    9.42367308507776
H        -5.89819998392985    6.56185492029163    9.27314604095012
C        -4.60844137087837    5.50358399953347   10.64872239276504
H        -3.76040193538960    6.17248847656088   10.48769501692879
H        -4.21853497478784    4.49018923826087   10.77552834913875
C        -5.36524482137710    5.91611892449178   11.90862911714935
H        -4.69757771670510    5.86971559870563   12.76975766113840
H        -5.70671317907774    6.94820112352835   11.80617211454729
C        -6.56609244032754    5.00267211363603   12.13323737745515
H        -7.11101390134046    5.31785045949205   13.02390377969524
H        -6.22029702480018    3.98006589557076   12.29767970398367
C        -7.49576138072329    5.03602489659330   10.92293679876623
H        -7.88508158007609    6.04929030913957   10.79264034548973
H        -8.34430318872733    4.36819876667259   11.08680448848105
C        -6.74840281538628    4.61654703567797    9.65141332780942
H        -6.38327634404582    3.58684471265841    9.76705234329411

