41
CSD_code = KUDVAH | q = 0 | S = 0 | Stoichiometry = C11H22N2O5Pd | MND = 4
Pd        6.55974130436124    6.51609258281079    5.75375805852990
C         6.24916924900541    7.19492925036675    8.42004849303300
H         7.17620869918036    7.13366144375234    9.02238109286100
C         5.71862734014684    5.77402291582557    8.14081160037481
H         5.70247727145537    5.16715221051387    9.06439715599198
C         4.27033939933135    5.87890292105364    7.61261913127827
H         4.29591491528439    6.42525086618307    6.62606192690808
C         3.39935967887568    6.67558630607440    8.57863194847770
H         3.37258511427236    6.14989570491587    9.54672144849433
C         4.05979241504215    8.04632555774404    8.76078331759152
H         4.07471409048783    8.56536429802374    7.79202845619725
H         3.50528041764606    8.64485947324791    9.48447893699627
O         6.47280392486701    7.84720189958978    7.23570272222196
O         6.50744404110363    5.13636851166141    7.19334820864595
O         3.73725269750256    4.58603808945847    7.39962657954413
H         4.50154896776362    4.03290890436839    7.17908611326552
O         2.09233678361235    6.84059329760427    8.07753178523016
H         1.80493668406283    5.96951520127676    7.77611225651117
O         5.36436871096349    7.91536921538531    9.27141164351627
C         7.32332043672536    7.34599409950653    3.06455773830864
H         8.38346639414337    7.17226816125600    3.29643568635556
C         7.20979886465279    8.19635969946154    1.79445534424273
H         6.15463419294623    8.39671027287518    1.58985773877293
H         7.71061084088443    9.15425290450450    1.94872480196109
C         7.82738788117189    7.47199483123627    0.60098805572214
H         8.89409078763405    7.32206308871295    0.77880818809477
H         7.72137040533671    8.08479214019446   -0.29470351938145
C         7.15143284258335    6.12122125940071    0.38814406450772
H         7.61314000553431    5.60351330410738   -0.45317558346257
H         6.09732611773223    6.27442579732894    0.14821391970601
C         7.26705967071686    5.26218726837059    1.64484988421369
H         6.76737421842394    4.30382652253310    1.48780095088307
H         8.32193804677939    5.06292982045549    1.85121834358032
C         6.64556153100154    5.97707336100328    2.84935179701016
H         5.57745863956875    6.14833504056692    2.66003180670249
N         6.71740877367848    7.99563698123080    4.23161981425580
H         5.79820851116566    8.37771814740520    4.00609187269998
H         7.29109944324203    8.75430317102467    4.59788101883085
N         6.75600458497531    5.18996763579923    4.08454698115737
H         7.70079423375055    4.81304244580049    4.19016106066657
H         6.10741187238857    4.40514539736872    4.09369915950398

