63
CSD_code = KUDVOU | q = 0 | S = 0 | Stoichiometry = C24H34N2NiO2 | MND = 4
Ni        8.07423102922622    1.82092813265674    7.05900273625482
O         6.53514807351872    2.21811522192817    8.02018974087758
C         5.31997969839161    1.84381711544898    7.69582782851342
C         4.42586695399044    1.34989148112121    8.68881941350997
C         3.12665555599931    1.05449557076368    8.31706901618022
H         2.42834134014147    0.69024595003736    9.05267364695646
C         2.67498774323840    1.19011896806708    7.01319138987438
H         1.65482170020624    0.93976591319721    6.76408278277848
C         3.54442029009867    1.62950080628848    6.03560376899458
H         3.21164818503963    1.72344871005723    5.01020864148750
C         4.84490809044677    1.96043491969760    6.36615808957003
C         5.81331248456181    2.40558739315887    5.30029771763168
H         6.10377648861942    3.45299577665284    5.45370240134260
H         5.34528729547937    2.31197959732019    4.30981968600224
N         7.03103886254468    1.58225058919936    5.37757954637282
H         6.72318610651004    0.60449535774603    5.40435409398424
C         7.94550053857647    1.74742907838009    4.24439380137207
H         7.53578359642356    1.32065580746149    3.31789863501927
H         8.10232935527451    2.81994195721632    4.08613457351578
C         9.27160453154599    1.08217819620370    4.61718422000113
H        10.02845460481039    1.24428598261666    3.83659273600085
H         9.12397844584759    0.00272156870192    4.73074551727326
N         9.69224831905794    1.62399798302196    5.91219841887597
H        10.02186756007995    2.58436430140756    5.76874396163507
C        10.79822195383194    0.88937394897697    6.54762572137525
H        10.41220875780022   -0.08457269534191    6.87526658199276
H        11.61366787725316    0.72090603976059    5.82962825125044
C        11.30943470464154    1.68187283530136    7.72347785534152
C        12.65392051659789    1.98243488592389    7.83322187351373
H        13.34734098809422    1.61721605366332    7.08705969493881
C        13.10711969472857    2.73768797228400    8.89570638608226
H        14.15735523976908    2.96777158261921    8.99330931583665
C        12.20003945602363    3.21544197380009    9.82921451758253
H        12.58363602181120    3.81844478127500   10.63586237304023
C        10.84298784031997    2.96071086666946    9.74588134269580
C        10.36973056842967    2.14804431097670    8.67582688432518
O         9.10376161389363    1.80997062475004    8.60517519117625
C         4.92158173808986    1.15982228299027   10.11434762065270
C         6.08872673754401    0.16200086959013   10.10215920719043
H         6.90006917913694    0.52758839016076    9.47554941085399
H         5.75476324883880   -0.80128098712901    9.71927611983346
H         6.46955684726543    0.02139633152423   11.11110224970000
C         5.39217667864708    2.50982431407849   10.66800484033359
H         6.20504462438625    2.89177062156183   10.06078098961131
H         5.73979029123402    2.39267350243765   11.69182970827076
H         4.57323308324914    3.22690223412493   10.65681091129724
C         3.84063921485341    0.61217787396640   11.05240270206304
H         3.48306677134918   -0.36078181868172   10.72175725909530
H         2.99841330800390    1.29665537315610   11.12691096059280
H         4.26345645203396    0.49225316871301   12.04797688551998
C         9.85188912327899    3.52258952406766   10.75384762272265
C         8.83645471818716    4.40212013462463   10.00999623062064
H         8.30698875353834    3.82326421201865    9.25559640172955
H         9.34525185323654    5.23293248886293    9.52327531198553
H         8.10752317238110    4.80365735814497   10.71012538977727
C         9.13006840818945    2.36305654590682   11.45028170342903
H         8.59113949880178    1.77353409489654   10.71720391787918
H         8.42445835428282    2.74856120232819   12.18258590622004
H         9.84921057612238    1.72450843695666   11.96028838306118
C        10.52147855089002    4.38144877504693   11.83194513170397
H        11.03208981251088    5.23825254342259   11.39723192614095
H        11.23166514514090    3.79988884230202   12.41574422308940
H         9.75796177598808    4.75643412593159   12.51074063345301

