59
CSD_code = KUFBAP | q = 0 | S = 0 | Stoichiometry = C28H18N12Zn | MND = 6
Zn        1.92494732685829    8.69547346264653    3.98914868708907
N         0.99809344478370   10.50299666691241    4.68086494373836
N         2.22099383785150   10.52142671913098    6.69158834774147
H         2.75869252425762   11.13482094194112    7.30437264887950
N         1.93919850532315    8.26095572142326    6.09836090710972
N         1.71683230948325    9.19715773989825    1.90754606280674
N         0.41015384238609    7.29403181860144    1.44664830037667
H         0.30067377975481    6.53198095602122    0.77719105657948
N        -0.04195695957746    7.89423602167657    3.67685163818404
N         3.65196692744456    9.60543849496484    4.12791561812549
N         4.65135249277624   11.95427063068464    7.37872939240118
N         7.89725083619410   11.14890454264265    4.37546992756287
N         2.64290051995158    6.93386433110864    3.53025085363589
N         4.67858786586014    3.00256402160240    2.61924336549506
N         1.19705421696774    4.72310176665161    0.34982693785416
C         0.28286691608808   11.18928295349023    3.78992157309584
H        -0.18648100001586   10.59188294562087    3.02308511697406
C         0.13615951809544   12.55801233164525    3.81651545647197
H        -0.45659001777458   13.06103320265829    3.07041814659062
C         0.79079730801819   13.27180608163935    4.81886448060522
H         0.73142303126406   14.34877425750196    4.85783068474261
C         1.50718469419043   12.57771780026534    5.76348839405573
H         2.02902333045604   13.08553093001771    6.55937615345104
C         1.57223589391858   11.17446475637146    5.67974621355184
C         2.43345539174490    9.18657653378308    6.92142248742325
C         3.14886167663001    8.84593722283624    8.08231722507564
H         3.57464448032414    9.62801168920723    8.69142669671109
C         3.30799455566490    7.51928490458135    8.40426068328258
H         3.86388136722372    7.23093605878832    9.28312691189112
C         2.72985844521714    6.55702896079188    7.57960289539610
H         2.80874763477052    5.50686088221991    7.80626924613807
C         2.07309383929152    6.97944556025880    6.44580182934146
H         1.62693901135981    6.26738943517754    5.76725911613079
C         2.51896080256487   10.15437534883798    1.43732819238273
H         2.77812668028155   10.92884903394847    2.14408987695901
C         3.00452753804613   10.18353324808743    0.14940148391115
H         3.65129182621689   10.98244304172816   -0.17296113717242
C         2.65885609760413    9.14307495704318   -0.70980867607964
H         3.04631419259879    9.10676827662397   -1.71638549926425
C         1.80588992397991    8.16664761998641   -0.25383565062254
H         1.50662529204011    7.34231267431010   -0.88219655395781
C         1.33115170101065    8.23599586983077    1.06736715744043
C        -0.24683767856149    7.09421597008800    2.62982275596098
C        -1.17171837422924    6.03468061826449    2.67608100441476
H        -1.26924541959886    5.37918289883994    1.82492757754623
C        -1.92067780707948    5.84969956567032    3.81284088011706
H        -2.63179803681104    5.04018147575485    3.87512923036116
C        -1.75048312336601    6.73209403427157    4.87826068184542
H        -2.33497996465197    6.63807880296519    5.77857401817826
C        -0.79770431782540    7.71905532602332    4.76058508880126
H        -0.61205304855716    8.41520746797889    5.56440291768985
C         4.55491596130620   10.16762708734176    4.60712563054262
C         5.51815199831591   10.88567318152445    5.24139348231172
C         5.10178340753413   11.49402585447032    6.41861167143018
C         6.82325084055579   11.01952921932521    4.76369715155713
C         2.84000306420013    5.95139918545804    2.93306103962476
C         2.95095130286303    4.82130923855832    2.18705703122017
C         3.90605957379226    3.83099027288771    2.42459162375375
C         2.01890002100069    4.71344938685963    1.16289702288505

