37
CSD_code = KUFDIA | q = 0 | S = 0 | Stoichiometry = C16H14CrO6 | MND = 9
Cr        4.72344147602485    7.00973947874349    3.94817092194547
O         5.23745375644387    8.51704339892315    1.03367667426327
O         4.10097229100185    7.29574179034507   -0.47851600074629
O         2.57622404647246    9.71601911108160    0.32206684944064
O         7.68075188351107    6.99826243609229    4.25830072463943
O         5.53889427834331    9.86891971632604    3.91835119470828
O         4.91287763365072    7.53644588773393    6.87300975231206
C         4.02923411355595    7.81676849073357    0.82457805481826
C         2.81874273013612    8.77241744674612    1.02180828412094
C         2.00196504133751    8.31481394598936    2.22901953022885
C         2.78268114237332    7.13971687554502    2.75707737813907
C         2.51314939097189    6.35487656347742    3.87246058706256
H         1.66151066749213    6.55892433557382    4.50958236134853
C         3.32672712053369    5.22426235534557    4.12141409307815
H         3.08344260050689    4.57563985440390    4.95446108029247
C         4.35910607086877    4.87187302259807    3.25148835748052
H         4.91279913338300    3.95483904614426    3.41081759678511
C         4.65121783779625    5.67985850550667    2.13199593199750
H         5.41673010020805    5.39551787848682    1.42142613743452
C         3.85441238088594    6.79635061717569    1.90330873366513
C         5.59662674070884    9.08335178177591   -0.21216572594479
H         6.68086752952595    9.01134917390090   -0.30482006112620
H         5.28669009524142   10.13233651860400   -0.25665407278354
C         4.83407587549186    8.23054978761311   -1.25155930496843
H         4.15119895409469    8.84520809842650   -1.84600517449963
H         5.49322446363368    7.66373816831835   -1.91142857214697
C         1.85882296156628    9.45862730251328    3.23543283405471
H         1.22931992036424    9.15281030572264    4.06754592851489
H         1.40399380309974   10.31718873255471    2.74755278829375
H         2.83361698271123    9.74835353376706    3.62207590630424
C         0.62174295467122    7.86592716810770    1.72115166353284
H         0.00547234649401    7.53489093380819    2.55415342297087
H         0.72237119139691    7.04679588273312    1.01069611032196
H         0.12678481276235    8.69704686858386    1.22500247260267
C         6.53516416685741    6.95738586640963    4.12425211506555
C         5.17200869500410    8.77510278616402    3.89373693307498
C         4.80558481087958    7.30710633402583    5.74583449371888

