91
CSD_code = KUFHUP | q = 0 | S = 0 | Stoichiometry = C48H39IP2Pd | MND = 4
Pd        0.35981756138959    5.08248496210905    3.29901309044351
I         1.23895470093133    5.74371481995064    5.71610304086542
P         1.26090830467791    6.95206414331796    2.40380019882807
P        -0.62750897578559    3.15392671164621    3.98701205123388
C        -0.58209584971030    4.81420543746739    1.56931656599370
C        -1.90552753759792    5.23270346042016    1.56155053698018
H        -2.35513669203490    5.66958481700016    2.45464308941786
C        -2.68324745261170    5.10314179476697    0.42112676580895
H        -3.71083991201321    5.44058779150706    0.42630626292154
C        -2.14113065964476    4.52854909874107   -0.71584740398714
H        -2.74786655075275    4.40124462622849   -1.60099582109786
C        -0.82035835147773    4.12452755442069   -0.72109946529685
H        -0.40146305374631    3.67002011848606   -1.60810113688166
C        -0.01853652954743    4.27831529419648    0.40901387278319
C         1.41446878832468    3.94188994982017    0.34844529494509
C         2.07514678126347    3.35410961242427    1.42827538004459
H         1.50697235219719    3.03368752295501    2.30271520048692
C         3.43001279763342    3.07185410828448    1.36347193652225
H         3.92231455759723    2.59806486024213    2.20233047594412
C         4.15435686008151    3.39020689819323    0.22789617984105
H         5.21309205163177    3.18147433391395    0.18212752615701
C         3.50899171995716    3.96850913921835   -0.85251478452924
H         4.06544339727453    4.21497879858769   -1.74537089219350
C         2.15495470668320    4.23642163903601   -0.79587679995629
H         1.66598550410539    4.70293816453010   -1.63862656486541
C         0.21539718820263    8.38326776456652    2.79133093230099
C         0.43905302546427    9.64137508807919    2.23744904192767
H         1.25477325240797    9.78700663469436    1.54139825600656
C        -0.39451864644867   10.69331331960799    2.56733693051848
H        -0.21734431833693   11.67105760695288    2.14297995523112
C        -1.45721058024172   10.49781796978897    3.43648908260720
H        -2.10279615037423   11.32563125918251    3.69034375376568
C        -1.69721710748304    9.24336042305736    3.97112038448690
H        -2.53112019231679    9.08908660359745    4.64012043058705
C        -0.86357344620714    8.18919319338636    3.64629441117404
H        -1.04414906722531    7.19543050447955    4.05890132190103
C         1.50927337800228    7.21683343503467    0.61811438513643
C         2.77010625117042    7.24731497579272    0.03511911300837
H         3.65236513235381    7.10755664968148    0.64435091459827
C         2.89727682726782    7.45990561688147   -1.32622794921850
H         3.88072677230519    7.49165597067216   -1.77221073887427
C         1.77167438117825    7.62762388295089   -2.11459708570105
H         1.87493983741094    7.78944985328091   -3.17771032734627
C         0.51129570307703    7.58683371956248   -1.53873219535565
H        -0.37024703952002    7.71272548271564   -2.15035299830562
C         0.37963809804807    7.38558940306560   -0.17911587900076
H        -0.60325208586634    7.36125001429156    0.27407531526315
C         2.91383500857549    7.30419502561380    3.06791357010662
C         3.74825975456486    6.19322116550818    3.17586459870894
H         3.36370258513711    5.21676215871536    2.88528302723954
C         5.03028676569490    6.33120797901631    3.66714251104480
H         5.67444213999066    5.46832983206398    3.75216982381691
C         5.47997636605900    7.57960360109601    4.06915961757917
H         6.47830294638719    7.69026086321869    4.46576307482586
C         4.64505803766349    8.68024584593027    3.98381832990395
H         4.99091821796796    9.64749220851148    4.31777372823382
C         3.36046272838464    8.54977266447050    3.48342871567570
H         2.70566148880392    9.40801680116948    3.44037587110783
C        -0.95955954607964    1.86527775115417    2.73988646248506
C        -0.05248714234333    0.83254091105478    2.52124426063187
H         0.81123284713796    0.72465681461902    3.16452376149650
C        -0.25464208212755   -0.06500594808245    1.48873602843611
H         0.45530944445355   -0.86307976198871    1.32744121261241
C        -1.35839689672544    0.06105826853224    0.66275384103302
H        -1.51046985117584   -0.63669186107836   -0.14738044581856
C        -2.26866370470483    1.08283453717281    0.87927692879759
H        -3.13337279728995    1.18454110654201    0.24009963605788
C        -2.07149317432534    1.98120880727994    1.90962442735667
H        -2.78204587965540    2.77962475976123    2.07287179223193
C         0.31155190832332    2.21595786359811    5.23475618195934
C        -0.29688370328619    1.43275833092545    6.20694140671296
H        -1.37439086930579    1.38747212214867    6.27324151910108
C         0.48190259478853    0.72614616736555    7.10599385929970
H         0.00585690514279    0.12465841098136    7.86664406293984
C         1.86335147746594    0.79440415963740    7.03984061541786
H         2.46499874238027    0.24477196401589    7.74837871660620
C         2.47391320217103    1.58038218465185    6.07641438305113
H         3.55074487619369    1.64997108067314    6.03470775252696
C         1.70131541260942    2.29179615396305    5.17929141438570
H         2.17916773583500    2.94011644774195    4.44898608657737
C        -2.25939860653055    3.42063497180398    4.73424741556123
C        -2.53943660326552    4.69319752049329    5.22063015647921
H        -1.78376055026453    5.47124655089033    5.14406108874794
C        -3.75899998834150    4.96411210212417    5.81294073944325
H        -3.96782474313717    5.95335125088326    6.19281409241648
C        -4.70870049345034    3.96206584111695    5.91948759279064
H        -5.66327932864933    4.16843451029364    6.38067250759744
C        -4.43762594206615    2.69256688900608    5.43252139413396
H        -5.18086682730842    1.91258198125983    5.51482131337792
C        -3.21928073580466    2.41714844755434    4.84001428320703
H        -3.01567145157791    1.42926648987775    4.44843098883284

