166
CSD_code = KUFHEY | q = 0 | S = 0 | Stoichiometry = C113H46ClIrO3P2 | MND = 6
Ir        2.78279193013224    6.22266247767786    2.18589664392218
Cl        4.82094676789197    6.22260383392149    3.36333496159212
P         2.21807504709003    4.31475680157604    3.56521018292284
C         3.76651743925065    5.48304221146359    0.39211692145243
C         5.06610523392487    4.80321097022738    0.39647846527416
C         5.00483555294511    3.64927155470937   -0.45624155446262
C         3.72482917013860    3.64927784502777   -1.10970583977128
C         2.99648535571766    4.80132617056945   -0.65724169270751
C         2.20361382636643    5.49628933287033   -1.55210636255109
C         2.09479960555319    5.05625306607421   -2.91593824211604
C         2.78249504792706    3.92737676108624   -3.34839807964077
C         3.61589058384702    3.20956964573641   -2.42430519835339
C         4.78801752995677    2.76048246564861   -3.13376611778102
C         4.67697838267183    3.20652399795582   -4.49985917388673
C         3.43567744315347    3.92861286378486   -4.63187908082958
C         3.37122405426936    5.05339652717508   -5.44361715602956
C         2.65012125491705    6.22069677583581   -5.00051141672978
C         2.02762236776296    6.22137022458760   -3.76063540657259
C         4.54216071822523    5.49821355030164   -6.15399045159257
C         5.73767891211086    4.80364856586618   -6.02629218370535
C         5.80604135813713    3.63654812146141   -5.18347459890560
C         7.08986134169954    3.63619662040739   -4.52703609857533
C         6.97862253974300    5.52418727103548   -5.89187284707652
C         7.19633996477758    3.20597688334551   -3.21149880900685
C         7.81376991501472    4.80301015709129   -4.96471008553958
C         8.61733627679824    5.49700600437511   -4.06995947505699
C         8.72711594449251    5.05180248370647   -2.70495592167295
C         8.03059801897374    3.92718965297927   -2.28229659560519
C         7.37218396095817    3.92613109689204   -1.00139936318732
C         6.13406190321434    3.20929547669014   -1.13645253292108
C         6.02324958042715    2.76055679906210   -2.50207789497847
C         8.79132857036962    6.21892720595305   -1.86080344627286
C         8.15041994139123    6.21960635429288   -0.63033426005854
C         7.42582511223744    5.05458055663766   -0.19104519875115
C         6.25550536761971    5.49604280891273    0.51613702285040
O         0.07134554243661    6.22360199075038    0.89820130692012
O         2.99038051368139   -0.98137562970992    7.31251249651551
C         1.12240129770285    6.22251738267700    1.36179721252489
C         0.42508999345577    4.01488104411716    3.54826592701073
C        -0.11965957870413    3.47658404116064    2.38264625970227
C        -1.48694844801573    3.35038397912803    2.24033694453225
C        -2.33232338336410    3.77897138933418    3.25196333774208
C        -1.80163302596107    4.34181670610181    4.39918241491220
C        -0.43140473447696    4.46796491668680    4.54380982586602
C         2.73457606763783    4.31310720480821    5.35080929201841
C         2.76510183090741    2.92987651169313    5.91770434176851
C         1.62371342948489    2.31746728801994    6.41233425193942
C         1.65234304900442    1.02012308902530    6.89401037104901
C         2.84096967454821    0.30102766162638    6.87888362035440
C         3.99483871640146    0.91194096083496    6.38577746406936
C         3.95419521517039    2.20482054608607    5.91606352611343
C         1.87390197455182   -1.64717216926450    7.85967113021076
C         1.37191120780600   -1.05317591866942    9.15457399069371
C         0.04464764302232   -1.21636624227209    9.53007003938512
C        -0.41389035926023   -0.68750393054007   10.72315669519534
C         0.44784516387143    0.01600686709056   11.54795319068498
C         1.77108028941582    0.18254695893214   11.17760945741864
C         2.23283452967485   -0.35345618699058    9.98872155192792
C         2.93579837366286    2.72436456600381    3.04508628622495
C         4.26458558102675    2.72775628960905    2.63588090215913
C         4.89047865100082    1.54671293309818    2.28388221945433
C         4.19613362997584    0.35117729224279    2.35392165868504
C         2.87887676808911    0.34048880599018    2.78329570006928
C         2.24576267055498    1.51970694414669    3.12908298344937
H         0.54339858768940    3.16288453277367    1.58657683112352
H        -1.89673601695431    2.92658763046064    1.33561173333855
H        -3.40202344875442    3.68419910574337    3.14026925886936
H        -2.45780373392269    4.68926850362158    5.18400889012922
H        -0.03429124040704    4.92530560658319    5.43815347698772
H         2.06244149282466    4.97339669768657    5.90254901646820
H         3.73521765165571    4.75464220478273    5.35497983973220
H         0.68691733142309    2.85467861310878    6.42941164731557
H         0.74396088992335    0.58849847741554    7.28318418725265
H         4.91343294482702    0.34697320586553    6.38190025989840
H         4.85620262679226    2.66361570029151    5.53926468884076
H         2.23301945582054   -2.66682697273941    8.04305507264060
H         1.05819071882861   -1.70184607785957    7.12460661155991
H        -0.63079185051215   -1.76081086654958    8.88459324228180
H        -1.44732171733476   -0.82111451307373   11.00748117980094
H         0.08780799035904    0.43289275151412   12.47679211776866
H         2.44807320620444    0.72932961540939   11.81717894930778
H         3.26556833788271   -0.22659766375764    9.69917396670707
H         4.80932092935164    3.65993367634794    2.60351621650919
H         5.91990223190029    1.56056921057803    1.95733061265368
H         4.68146963770671   -0.57398822319282    2.08049515895226
H         2.34132442508643   -0.59395296302943    2.85258706670663
H         1.22105496724120    1.50220692280375    3.47142777188188
P         2.21798968191134    8.13013244352262    3.56561074516432
C         3.76716746567356    6.96077161367171    0.39164739611205
C         2.20426342343816    6.94769528268110   -1.55256586369161
C         3.37227435218132    7.38706571259718   -5.44435650761084
C         2.09584937658862    7.38696191429214   -2.91667572323723
C         4.54281001936417    6.94074260126933   -6.15444768994686
C         6.97924754579288    6.91273809508853   -5.89231301379553
C         8.61798634749830    6.93960107037260   -4.07041728965983
C         8.72816745403064    7.38557282775991   -2.70569653043624
C         7.42687133797810    7.38556325359065   -0.19178557384694
C         6.25615574511639    6.94560808334347    0.51568109664638
C         0.42479099159064    8.42882457607123    3.55025308377695
C         2.73580618262008    8.13174067355061    5.35081648032077
C         2.93432951559194    9.72107979919106    3.04536681276578
C         5.06737533589559    7.63943573433426    0.39559312565918
C         2.99775546258930    7.64251448100043   -0.65813691535802
C         3.43774077031015    8.51230536893574   -4.63333070154399
C         2.78456014489681    8.51494426294110   -3.34985158605534
C         5.73895369463329    7.63431008618077   -6.02718991128403
C         7.81504467185741    7.63375173506683   -4.96560870267009
C         8.03266303995948    8.51108158726178   -2.28375150029375
C         7.37425000501079    8.51354347269838   -1.00285690294458
C        -0.12133427419756    8.96794478131245    2.38567138532582
C        -0.43053473548717    7.97392077016198    4.54598370723525
C         2.76524877819464    9.51476286146253    5.91824601700799
H         2.06480611831764    7.47050918435299    5.90280305766305
H         3.73691955800656    7.69126922089989    5.35408626750706
C         4.26238476204574    9.71835728237037    2.63381258300649
C         2.24404294176592   10.92545807603050    3.13136317118337
C         5.00714842567749    8.79288020892000   -0.45787808576871
C         3.72713904793898    8.79361625731043   -1.11133573964364
C         4.67969239281062    9.23335877067244   -4.50176990357067
C         3.61860200332895    9.23258549705681   -2.42621334875368
C         5.80836721978168    8.80188305403778   -5.18511218888852
C         7.09218748836274    8.80149502097497   -4.52867572828728
C         7.19905368827809    9.23245383628684   -3.21341155272918
C         6.13677267074678    9.23140420450805   -1.13836717483771
C        -1.48885194698399    9.09310774578852    2.24458265088661
H         0.54081317971153    9.28310411417089    1.58942806875909
C        -1.80098395383866    8.09904251891861    4.40258929335158
H        -0.03228261121524    7.51603132506229    5.43954532984393
C         1.62364769470558   10.12557111496132    6.41436556173794
C         3.95347513375464   10.24123311339546    5.91570163454835
C         4.88733186066631   10.89983687223920    2.28159367568221
H         4.80729434442274    8.78633959741861    2.59976644213862
C         2.87621678744286   12.10511472682337    2.78534306530231
H         1.21987686524120   10.94236124646605    3.47536422533284
C         4.79113230044920    9.68016730986154   -3.13595979061202
C         6.02636458191538    9.67938141991661   -2.50427531581945
C        -2.33306203323296    8.66268830409508    3.25640183767222
H        -1.89972338155225    9.51746047154214    1.34060792637661
H        -2.45623658610621    7.75018214417996    5.18755842716786
C         1.65121517403885   11.42275226552571    6.89654989492230
H         0.68752642784555    9.58720481017123    6.43220754993235
C         3.99305287945316   11.53396342721076    6.38590985755215
H         4.85562469017922    9.78369977514624    5.53770732224516
C         4.19276272679634   12.09512311840594    2.35376152505494
H         5.91623367507272   10.88653847127949    1.95337434425738
H         2.33852930125162   13.03935475481750    2.85625900764826
H        -3.40293686069526    8.75651472344198    3.14558559631955
C         2.83895318507298   12.14329535583307    6.88043804661050
H         0.74273367508783   11.85311632467607    7.28689085097344
H         4.91095544047510   12.10004707457191    6.38129724651034
H         4.67741141589621   13.02065032799971    2.08034596041920
O         2.98727395747941   13.42571396692242    7.31439001695507
C         1.87049517272925   14.09010373075988    7.86263468558819
C         1.37037027758953   13.49541216438542    9.15794057890077
H         2.22854673499694   15.11017440851566    8.04579789463471
H         1.05405732390120   14.14387073275678    7.12831179046911
C         0.04333906719692   13.65733817695904    9.53480383243445
C         2.23278366794642   12.79637723235569    9.99112019401191
C        -0.41348439361347   13.12795568586992   10.72831810045406
H        -0.63325907232928   14.20122125210398    8.89006822844153
C         1.77273928480378   12.25983448968984   11.18042925060785
H         3.26534378222188   12.67052607501397    9.70051535873511
C         0.44974620454268   12.42517143701927   11.55217015301585
H        -1.44674385678546   13.26059360276097   11.01371987299871
H         2.45090284292831   11.71365924433277   11.81927686124542
H         0.09105267004454   12.00789804374326   12.48135484310497

