87
CSD_code = KUFJUR | q = 0 | S = 0 | Stoichiometry = C37H36CoN5O4S4 | MND = 6
Co       -2.56677147874711    2.82913598075345    6.02562958193140
S        -6.69300776181448    3.93921470081858    4.91144535005721
S         1.23874985855260    4.86259375308131    6.95378349751062
S        -6.30798173227771    0.76343107099305    4.94469320429270
S         1.52814093298041    1.68497920493850    7.21135396073337
O        -3.45978429033829    0.18441185408624    5.70333076708015
O        -4.05403679154528    5.27740143725057    5.59043705583735
H        -3.07695283662190    5.53776477248624    5.84411053849406
O        -1.10621086348369    0.37831405603923    6.56966852546441
H        -2.06990886857594    0.11507527071239    6.27285164148296
N        -3.77811893774297    1.43140486347236    5.68123088853781
C        -6.73540575559556    5.41368124200639    5.91673164475181
C        -7.18569109955403    6.59466410486879    5.34997160992576
H        -7.46101343369233    6.61715606698452    4.30681537042411
C        -6.45604808608794    6.50329079079117    8.02371904699145
H        -6.17072231428235    6.46638810403770    9.06453080476089
N        -1.09965972336411    1.73069594221210    6.49526576452788
C        -6.38616216302130    5.35535009268544    7.25692135287547
H        -6.05375106872750    4.42536609792735    7.69282821744604
C         1.57232546112817    0.26575920951917    6.13165478395258
O        -1.60729455862305    5.47016725477829    6.14228213766176
C        -4.95918031314479    1.83810063928452    5.33004728148864
N        -4.05307688764434    3.92126120251403    5.61529524798316
C        -0.15424889133294    3.81418887250478    6.67624051448336
C         1.29863822963031    0.42080603278405    4.78126149359113
H         1.02716964267171    1.39190100572468    4.39116127658727
C        -5.13051678202742    3.26643277965336    5.33925745891241
C        -4.65381477381859    0.08136583726618    2.85626635127490
H        -4.51237547858583    1.14489683184099    2.72040754601366
C        -0.01637003411862    2.38456430150667    6.74922608023113
C         0.45877713968725    6.19113879306221    7.84670039069002
C        -6.89675597078009    7.69117216015307    7.46448776665285
H        -6.95170572349511    8.58415056109528    8.06882138531408
C        -0.48890503580293    5.92677809818294    8.82330411630063
H        -0.78361373722829    4.90951581523160    9.03487908447006
C        -7.26819419252389    7.73312317851127    6.13112739365373
H        -7.61465296818235    8.65725236990314    5.69308588633478
N        -1.33463763906654    4.22510519753083    6.32585686813055
N        -1.97382608512828    2.75816861708324    4.00000973506637
C        -5.04882482059709   -2.64170505582610    3.20134793472640
H        -5.20335578552757   -3.70183559022925    3.33599105872317
C         1.94857865517168   -0.96562070330560    6.64229566435885
H         2.16495519345560   -1.06393951648402    7.69439559483065
C        -4.22599662841373   -2.18315455475516    2.18585401096040
H        -3.73841190790227   -2.88505654798840    1.52573914379144
C        -1.38741097457794    3.89265220933395    1.98506701016125
H        -1.28950196701521    4.83048394199405    1.46223768393726
C        -1.22217408353583    1.52420235945612    2.10281047668645
H        -0.99270313901021    0.56079430808180    1.67650303842511
C         0.85950621524294    7.49165919655804    7.58330345215285
H         1.60407701882468    7.67709422694212    6.82439591665750
C        -4.03118612563161   -0.82266688455783    2.01614040921827
H        -3.40094887292349   -0.45891409223040    1.21736221059888
C        -5.66985249121785   -1.74627014075453    4.05207320987800
H        -6.30610588680249   -2.09091276295328    4.85209230963355
C         1.73877339892870   -1.91438667893621    4.44794495438813
H         1.79788224173086   -2.76801274698236    3.78959511590343
C         1.37220839567613   -0.67723622352102    3.94490683112335
H         1.15368277835370   -0.56178569403311    2.89349269791915
C         2.03220631360208   -2.05484392554005    5.79407080674179
H         2.32102793212407   -3.01761223333902    6.18782695703486
C        -1.83249708438795    3.87990135930246    3.29564974416302
H        -2.07265470012078    4.80944031702239    3.79346799548394
C        -5.46205665959402   -0.38671762773373    3.88118124925570
C        -4.16491379361406    2.08983728931749    8.49268799044474
H        -3.88791804233814    1.04009831993681    8.38002980079432
H        -5.10301728832578    2.24707531302436    7.95524233428354
C        -1.67688580144406    1.60259908283016    3.40812560851546
H        -1.81362668543205    0.69746156412409    3.98442516018238
C        -5.53284420028523    1.49811093058959   10.53186717137129
H        -5.69862097940514    1.70880628136363   11.58611517573912
H        -5.28001223889518    0.44569274622003   10.42622876802011
H        -6.46090675107730    1.68115927210398    9.99433100777028
C         0.29357144246908    8.53442898727518    8.29313055669112
H         0.60218045329081    9.54897980818012    8.08880894694723
C        -1.06189898966555    6.97813312482855    9.51364140250650
H        -1.81215240510137    6.77476590593170   10.26344915937354
C        -0.67263792460530    8.28113626829256    9.25253147418300
H        -1.12146404189934    9.09839867771644    9.79715123716534
C        -1.07102989758591    2.69098829200167    1.37221990671237
H        -0.71648843782953    2.66578298151066    0.35270349579171
C        -4.41367862594376    2.37206536596991    9.98042993503372
H        -3.49545445440336    2.18673819708825   10.54174416008500
H        -4.67506853063736    3.42547802506789   10.10965115148902
C        -3.06575103484515    2.99259647790344    7.95959822275409
H        -2.16155228087216    2.80633881876130    8.54782916415092
H        -3.35265149507414    4.03720316615974    8.12392107133310

