87
CSD_code = KUFJEB | q = 0 | S = 0 | Stoichiometry = C46H37IP2Pd | MND = 4
Pd        0.04269568849823    4.26637897107034    5.55662597141341
I         0.61870051737783    6.12383130609354    3.76705577559618
P        -2.17845252944779    4.35103463774436    5.18907044475573
P         2.17286117044409    4.00499481233603    6.24343558168110
C        -0.35374980592448    2.68220399762063    6.68051265552947
C        -0.33018136925055    1.43378756544809    6.11876978167543
H        -0.08997735376256    1.29633708696789    5.06427196442670
C        -0.61832319215881    0.30039871269276    6.89907097444744
H        -0.59239915350546   -0.67687418433538    6.43572566223356
C        -0.92873407047984    0.42717156700256    8.22392348217566
H        -1.15261537514286   -0.44497543704626    8.82224132405639
C        -0.96265387985150    1.69676077696546    8.83580221085583
C        -1.27634026636482    1.88070183933091   10.19680815484034
H        -1.50337330181733    1.01026512007649   10.79692499255979
C        -1.29418740737028    3.12912210143662   10.75277620599768
H        -1.53601194945133    3.25591953528703   11.79836531766992
C        -0.99833801437906    4.25866466304193    9.97542597007272
H        -1.01453510891835    5.23804025871314   10.43215572394064
C        -0.69298556647295    4.11163265457309    8.65307274991573
C        -0.66714929472379    2.83899678620858    8.04769492021007
C        -2.67813667644067    3.50341352750444    3.67021194822381
C        -1.66571685577389    3.08545233246892    2.81320576619310
H        -0.62674437942893    3.27992763935343    3.08205218638798
C        -1.97516121876295    2.43555500489483    1.63269618378291
H        -1.18750564365227    2.11805495392879    0.96541094955769
C        -3.30014385852794    2.19615836667243    1.30866369137060
H        -3.54735529958144    1.69284233783876    0.38558338934493
C        -4.31256675730694    2.59222163519610    2.16985377975121
H        -5.34408900588563    2.39178372046533    1.91826433180971
C        -4.00810368478072    3.24070560804289    3.35194051900020
H        -4.79392796072199    3.52846263601407    4.03810859314867
C        -3.26518674813757    3.61132616731054    6.44745359187039
C        -3.51675135631069    2.24235429167810    6.40963438713064
H        -3.17203120414852    1.65640144958124    5.56778041015656
C        -4.19303626783403    1.63136458071016    7.44726022038065
H        -4.37935299950777    0.56795485753338    7.41232127854052
C        -4.61871296742703    2.37733042352747    8.53420570114443
H        -5.13658061998672    1.89603893154781    9.35046155026793
C        -4.37750485746250    3.73983082731264    8.57408324018092
H        -4.70960496755550    4.32398939438806    9.41985633578011
C        -3.70002415416556    4.35643134873818    7.53843844982949
H        -3.50719151542277    5.42050453596226    7.57604841952854
C        -2.78785888571040    6.05887394756909    5.08132327923217
C        -3.79702783689035    6.49418956489403    4.23474285045073
H        -4.27819562150960    5.80282504217900    3.55840094956307
C        -4.16518072810528    7.82877828560463    4.24169295141479
H        -4.94428572480206    8.17032281168204    3.57597996991010
C        -3.53423656155334    8.72641636830781    5.08586490970408
H        -3.82366920942871    9.76672362113410    5.07970818688688
C        -2.51613013041354    8.29787715689512    5.92314272721220
H        -2.00852681280863    9.00218726836597    6.56565640669458
C        -2.14093494451774    6.96988364709519    5.91446606128915
H        -1.31378026495709    6.62403318021019    6.53693630675019
C         3.12949781522513    2.98539294950342    5.09412509944903
C         2.54064066059325    2.68869212292891    3.86942236238844
H         1.54402177385066    3.07580020092634    3.64978573309282
C         3.21331051148516    1.91594569614559    2.94095078600802
H         2.75679649467019    1.69230726693857    1.98799629986511
C         4.47640740082029    1.43173664318757    3.23787655905501
H         5.00733960402092    0.83025380326271    2.51476746339515
C         5.06019030171565    1.70884842419578    4.46496902240436
H         6.04092031704068    1.31879538484563    4.69626371374840
C         4.39128620037231    2.48025369347647    5.39676853006397
H         4.83357641012238    2.67844762294235    6.36436123988026
C         2.45668681287554    3.19231116462865    7.84686116753621
C         2.45050508642487    1.80147457798813    7.91477657742374
H         2.40095792310028    1.21992543848164    7.00365455704271
C         2.49464207563670    1.16539416687775    9.13974508855737
H         2.48338224240898    0.08619359983914    9.18321514739727
C         2.53986167838951    1.90884695656485   10.30786417847551
H         2.56227829902882    1.41018777346047   11.26542951425202
C         2.55449195873117    3.29159729767639   10.24628025900882
H         2.59225135816626    3.87376804911436   11.15543204215497
C         2.50867684159359    3.93361264059756    9.02246922399558
H         2.51332510332333    5.01473161764734    8.97872578696730
C         3.05706285908517    5.58061409340654    6.42904636593983
C         4.39031615381414    5.78705614464582    6.10602834336316
H         4.98380186089261    4.98166930537112    5.69831681304462
C         4.94885160038654    7.04127210589998    6.28357748239499
H         5.98430532211860    7.20548947535886    6.02351541114748
C         4.18645790123330    8.08496517280167    6.77958135806919
H         4.62888729719470    9.06153252906916    6.90833941580174
C         2.85073805631219    7.88550573613035    7.09140248674090
H         2.25006394662946    8.70505849035351    7.45747881347187
C         2.28786792569864    6.63864769025402    6.90980592663638
H         1.22835103390050    6.47520867038096    7.11089434861783
H        -0.45794484464066    4.98605525986988    8.03479349607914

