81
CSD_code = KUFJIF | q = 0 | S = 0 | Stoichiometry = C35H32CoN5O4S4 | MND = 6
Co        3.25804094038133    6.92948485972171   -5.49203797945284
S         1.32302432151416    3.06949051291608   -4.62012032555574
S         4.24900526360339    3.34789301956052   -3.12408632624534
S         2.50187840082842   10.30699362453296   -8.21766395616685
S         5.24648076799152   10.73789997467551   -6.52580728874149
O         1.33313955462743    7.70290309768196   -7.37655039237704
O         5.64125231170876    8.38224781016985   -4.68654977608024
H         5.65567497941063    7.46262682353835   -4.20364418193338
O         5.33407279618862    6.02649476181913   -3.83935033050639
N         4.16620565462345    5.78459459632204   -4.30572910540878
O         0.80014227001274    5.56068584466749   -6.16678905533614
H         0.83360426072429    6.44701318555977   -6.71635878906103
N         2.39936805478416    8.03728267055602   -6.74488348748453
N         4.53606389070766    8.32742483001447   -5.47159079904961
N         1.95698981728611    5.56849014815189   -5.46181574913608
N         4.26291221172203    5.96093507223380   -7.08231545677087
C         2.27408511172685    4.54594668010534   -4.74028057710636
C         3.55043304553142    4.66202225579686   -4.08637442854809
C         3.05111294792047    9.12649621636224   -7.01946417762479
C         4.27150029774051    9.29892012211365   -6.28013306764069
C         2.28517268615412    9.20604826941090   -9.60059249047025
C         5.57751358844510    5.75007134181000   -7.03281763151446
H         6.11279398925443    6.15098976176718   -6.18274981434199
C        -0.31943661940128    3.73811928276222   -4.45134195791999
C        -1.36576081498913    3.10650233376646   -5.10379569815093
H        -1.16617536025138    2.25574537512214   -5.73694283389170
C         6.88693040068786   10.04087075941440   -6.41186570071410
C         1.97829212028123    7.57172027473589  -11.80893639043215
H         1.85840145547761    6.93231517410862  -12.67080220221439
C        -2.89273511327237    4.68141190319159   -4.13053316119089
H        -3.89824685019323    5.05543379351586   -4.00984894514966
C         3.10212480080495    7.45222529017201  -11.00892773328510
H         3.86684851732160    6.72783675301983  -11.24903380399140
C         2.94344549290497    3.13900608869867   -1.93259845796984
C         1.25777693315042    4.05233479234406   -0.49946649146050
H         0.73315088057764    4.90918164684883   -0.10274983774539
C         7.20856186294860    8.91121030444414   -7.14871846234367
H         6.45967584959040    8.43218291206835   -7.76397450830330
C         3.26283440586726    8.27118254704748   -9.90704825903281
H         4.14537138108932    8.18648022861214   -9.28814182560159
C         1.01162848314370    8.51584348328783  -11.50422084099972
H         0.13470074701392    8.61299520954491  -12.12707850711083
C         9.45090437905002    9.02417229742557   -6.30395620900330
H        10.45150776772746    8.62168789311837   -6.25621666310338
C        -1.84056030959326    5.30194425061653   -3.47804407574703
H        -2.02176797159992    6.15902674400339   -2.84670459648128
C         1.16108235874032    9.33559993222599  -10.40102601039321
H         0.41262372989594   10.07081225635839  -10.15036593079143
C         2.61636313341176    1.85798895891612   -1.51334428790973
H         3.15041849860239    1.01324810591869   -1.91983448122966
C         7.84352976197432   10.67809160623703   -5.63917832401766
H         7.57662582117203   11.56029219271515   -5.07882241734849
C        -0.55102404202652    4.82637117413831   -3.62493477360712
H         0.26839733340932    5.30011901579013   -3.10643328751071
C         0.91357979549663    2.77478788835093   -0.09119342346282
H         0.11326861978940    2.63269176181272    0.61922393186596
C         8.49050434865751    8.39860156234607   -7.08129681650271
H         8.74094995352660    7.51238400064635   -7.64583777460322
C         6.26038477035378    5.04042320054078   -8.00518901467807
H         7.32554718639601    4.89928839197022   -7.91499495102391
C         3.58540571450050    5.46502524599238   -8.11596936158950
H         2.52346065889406    5.66492088463681   -8.15604783521794
C         1.60259692156304    1.68133037885541   -0.59025073124930
H         1.34338189534242    0.68429609408530   -0.26670531016047
C         9.12747832286213   10.16588630916980   -5.58999655812579
H         9.87525161362266   10.65652917923354   -4.98546831217114
C         5.55276359468217    4.51428309393301   -9.07378971321374
H         6.05375274075849    3.94806101795685   -9.84465647628046
C         2.31973075866462    7.78959934881186   -3.94296357037211
H         2.24340941786463    7.03762481074107   -3.15215987759754
H         2.96042641367036    8.59126106057746   -3.56706467448960
C         4.18622393983007    4.73374422052053   -9.12615214581643
H         3.58502225277233    4.34628140735230   -9.93293689304191
C         2.28047503300220    4.23998031772433   -1.41081961772813
H         2.56862439200835    5.23638409605767   -1.71447226250385
C        -2.65410722400795    3.58080412317286   -4.93663319510070
H        -3.47240351573588    3.09263620098849   -5.44462279026478
C         0.93298706944916    8.34907086275672   -4.20649140668435
H         0.51900833715071    8.71953304948597   -3.26536989085528
H         0.24952969908710    7.59344513203403   -4.58894521879478
H         0.95529109343530    9.18311830056675   -4.90360424912926

