76
CSD_code = KUFKEC | q = 1 | S = 0 | Stoichiometry = C32H33BN8PRu(1+) | MND = 6
Ru        1.06359701353901    3.01299938822333    3.84997424496671
P        -0.91426579814633    1.75326343071034    3.56654114698504
N         2.11957426915726    1.68635610563919    2.71295465033374
N         3.28989167875508    1.22790667319028    3.16516570685807
N         1.64154111370598    1.93946463491801    5.52441854497099
N         2.89754058456075    1.48788781656213    5.59943878269013
N         2.85468063171098    3.98499413724001    4.10449666526395
N         3.96744879841580    3.28701962398477    4.32847096326906
N         0.69054002435327    4.19903738617517    2.30144531655279
H        -0.19227718445219    4.72579345098048    2.28844787976625
N         0.24257482741595    4.28351232537989    5.02537921166299
B         3.90153372209410    1.75676842749202    4.46843676435593
H         4.95639535712396    1.28275075166992    4.68947956889389
C         1.88011377685667    1.09555908467498    1.54778993022674
H         0.98743424219338    1.29452310722200    0.98429975060529
C         2.92411204816915    0.22860372919828    1.23605689090081
H         3.02074193189423   -0.38938497031011    0.36858290916869
C         3.79939211995605    0.34551305350739    2.29486056087874
H         4.73774850417314   -0.13674371554647    2.47589607705675
C         1.04551738244483    1.67062411231992    6.68117110300264
H         0.02158882865963    1.93911064129525    6.86109497841651
C         1.93805495647853    1.01483389018514    7.52576249125004
H         1.75601338289306    0.66318741288575    8.51936287765264
C         3.10522775764612    0.92272059827436    6.79602100492870
H         4.05263859450177    0.49577743591337    7.05316181686679
C         3.17917703368590    5.27094248324254    4.05969623271197
H         2.43943965240639    6.03235998065447    3.88931746957756
C         4.55101295683436    5.41045246019306    4.26156310690514
H         5.11843400323419    6.31696119240305    4.28221584794289
C         5.01129574229347    4.12054966869771    4.42983474050201
H         6.00086028611925    3.75516369791506    4.61176877102462
C        -0.05937979431684    5.00223932928191    5.87539850034595
C        -0.48708400544956    5.88749074601521    6.91619431389502
H        -1.28758426204020    6.53254649296011    6.55302971947800
H         0.34735284405395    6.50703007562564    7.24524375346777
H        -0.85381582293290    5.30607950411241    7.76252010074061
C         1.46548032261746    4.51405126674038    1.32421809206268
H         2.42113032621686    4.00286633415950    1.24168132002582
C         1.14584105294647    5.48348001605323    0.31323258318914
H         0.18186889505859    5.97155780851422    0.39879982476521
C         1.96997291501532    5.78795223352781   -0.69162128002333
H         2.93219901710999    5.31455660137848   -0.79340777505525
H         1.70918954949992    6.51722086660198   -1.43769337493469
C        -2.18509823530015    2.27351240308345    2.35755586202373
C        -1.76339160709562    2.69993070047597    1.09951009681090
H        -0.70581385133378    2.73024272805528    0.87498590067507
C        -2.68204177250318    3.06960216025776    0.13457197174689
H        -2.34046916710454    3.39645869720119   -0.83635509792655
C        -4.03808461733653    3.01475630206674    0.41384298643339
H        -4.75735101583815    3.30502786186562   -0.33626631787463
C        -4.46693185470381    2.57666799291770    1.65578968389802
H        -5.52277741051951    2.51893623648432    1.87284051905871
C        -3.55003380688834    2.20367529475937    2.62329838136271
H        -3.90028456667276    1.85224041848210    3.58226795992451
C        -0.63050239868977    0.01709511840303    3.08360282286854
C        -1.35576243551166   -0.61662904667199    2.08084960121784
H        -2.14335556845262   -0.08985264583931    1.56223051606865
C        -1.06831149926158   -1.92804873257977    1.74208558812096
H        -1.63539068804821   -2.41322573834517    0.96215507997580
C        -0.06010385565046   -2.61554854887243    2.39574247786713
H         0.16307120370607   -3.63573475843726    2.12408867649890
C         0.66175094397678   -1.99183229283929    3.40150667226171
H         1.44618212274203   -2.52520392460326    3.91732783544941
C         0.37962257513262   -0.68317609242530    3.74201134325267
H         0.94144463123763   -0.19559204517699    4.52757804463411
C        -1.90657339244329    1.59451230963914    5.08747183683938
C        -2.05224113859324    0.40297339221944    5.78793100329313
H        -1.60245939410223   -0.50511864382774    5.41405614361779
C        -2.77884142289952    0.37861529929101    6.96713017277597
H        -2.89134846489639   -0.55020909559941    7.50534474564258
C        -3.36156751338019    1.53610722142991    7.45444329421600
H        -3.92670039756650    1.51160868684346    8.37343266897110
C        -3.22467362284344    2.72682729801663    6.75611631500916
H        -3.69024859724248    3.62776546875401    7.12801549271444
C        -2.49952423059922    2.75727629347204    5.58073938780653
H        -2.39793822774791    3.67856039165332    5.02049655063098

