109
CSD_code = KUFNAA | q = 0 | S = 0 | Stoichiometry = C41H64NO2Ta | MND = 4
Ta       -1.83587334689184   -0.57774565302180    5.96435109363288
N        -0.08771076616718   -0.04303376721844    5.27310613696986
C        -0.04025609101409    3.02789996384010    5.80657978029303
C        -0.43569138699810    3.44230317940720    7.19878987181080
C         0.20321318361049    2.44218172341173    8.17100276899497
C        -1.94958430664756    3.43661499206499    7.40196224722808
C         0.11449276091908    4.84934600411193    7.46905011594700
C        -0.85265362006287    2.66421242012038    4.82308858507168
C        -0.37250177977080    2.29326845314671    3.48532680967153
C        -0.69344219724472    3.27238744254419    2.36347274502713
C        -2.05745757259485    3.93224391720346    2.59536504734259
C        -0.72934656136755    2.59315696843829    0.99121880085655
C         0.39789346046418    4.35323698275034    2.37911766450627
C         0.39229588483769    1.20942474969314    3.28553285874926
C         0.63954773157472    0.14511269551794    4.25792379942418
C         1.84333905033064   -0.79359481182442    4.03225831329267
C         2.45998781598399   -0.72359582937783    2.63543009642452
C         2.89093788158208   -0.35058280885213    5.06447637253401
C         1.41955312209432   -2.23638212699347    4.32165497169498
O        -1.61847073398803   -0.93875535368661    7.71914953683171
C        -1.49061129582162   -1.24513661392276    9.00848884089463
C        -0.21567926107332   -1.49503126473482    9.55098896607702
C         1.00114884620761   -1.45545906651276    8.65578525686120
C         2.18784530181217   -0.74711807926323    9.30940738230946
C         1.37972355809411   -2.88445912644156    8.25305079202924
C        -0.11170049236270   -1.81689226697807   10.89439572807957
C        -1.22963091481395   -1.87686090873382   11.70446300704492
C        -2.48027140121573   -1.62769993633567   11.17042950175567
C        -2.63476981358788   -1.32230820833217    9.82860072727640
C        -3.99108890749846   -1.03471421405099    9.22386904083275
C        -5.13341033302547   -1.79693565604450    9.89239343473793
C        -4.25334296238282    0.47447723389561    9.27007495401040
O        -2.76746401434244   -0.34610178465067    4.42483052758303
C        -3.38167066812259    0.04301522625004    3.31243366667552
C        -2.96988741302666   -0.47439533288864    2.06796417963444
C        -1.86089560832790   -1.50067380960968    2.05813780562598
C        -1.11964058110611   -1.59868685432171    0.72740046288621
C        -2.43753374730402   -2.86847401800843    2.44303786941719
C        -3.61729909518974   -0.05256093874439    0.91934782650924
C        -4.65110637435917    0.86482023013303    0.97996637674600
C        -5.05518381625165    1.36976894923286    2.20152960749408
C        -4.43504018528149    0.97742510370583    3.37692032105888
C        -4.87816260595892    1.48348016380854    4.73188981709594
C        -5.84420925515345    0.46948026510473    5.35669460515032
C        -5.51522366864843    2.87087539190415    4.69859073255772
H         1.02908296087512    3.01983516304166    5.63223003552757
H        -0.05359006538923    2.69031185589355    9.19914545477900
H         1.28644080371643    2.45078084156924    8.07277367557372
H        -0.15403034962476    1.43675729156593    7.95102848083033
H        -2.18799222099869    3.72231015380162    8.42466698593953
H        -2.43646106475098    4.13994185780609    6.72998587984615
H        -2.34215680105394    2.43793959679864    7.22043925890011
H        -0.11397162346721    5.15756510644720    8.48705972835128
H         1.19410495435303    4.87115940736094    7.33817717644371
H        -0.32837712663739    5.56900059919984    6.78329203062211
H        -1.92479934651932    2.69359248813692    4.94227039088175
H        -2.83688737559107    3.17464382216286    2.64413689361126
H        -2.28587620360041    4.60362274432659    1.76969868863662
H        -2.05999478589576    4.51359236778696    3.51361656105168
H        -1.41057707989235    1.74528588384313    1.01179955710737
H         0.25584285581695    2.25375883634279    0.68220035278415
H        -1.08326941109037    3.29930427599497    0.24291045442923
H         0.42804972545313    4.84514189319944    3.34873045781437
H         0.19858364629094    5.10085540667188    1.61433421985880
H         1.37349831557647    3.91202402831997    2.18790944268828
H         0.78954739508629    1.02750744451008    2.30064602885176
H         1.73039769356218   -0.97587621728028    1.86941060192734
H         3.27544733794547   -1.44267747939765    2.57098699072017
H         2.87036185393938    0.26240063657419    2.42928639774756
H         2.46928858271016   -0.40780853214213    6.06449921854900
H         3.19821241290549    0.67699807756129    4.87853263872203
H         3.76995950588639   -0.99044795215695    5.01096116215046
H         2.29152941173920   -2.88622110256375    4.35732348145714
H         0.74986993793548   -2.59656750051553    3.54417389507948
H         0.89801967375318   -2.28591698187569    5.27533207340655
H         0.73296960641558   -0.90455455994139    7.74538261819515
H         1.88636114090023    0.22393450580915    9.69469372283737
H         2.59655448480170   -1.33451343246878   10.12796893517912
H         2.97871176366780   -0.59822442341237    8.57701673315672
H         0.54991202768445   -3.35955905518582    7.73353129923713
H         2.24449741844537   -2.87523343770183    7.59334086604352
H         1.61924706164670   -3.47604644030389    9.13468994167181
H         0.85914517653040   -2.02348939461007   11.31783705398943
H        -1.12817876329792   -2.12092179500174   12.75157126229840
H        -3.34635107518481   -1.67758848058857   11.81160193986557
H        -3.95726434870503   -1.34515707200028    8.16668931696772
H        -4.89460215242596   -2.85506019623670    9.97404179709843
H        -6.04102257005062   -1.69256066207078    9.30046642273562
H        -5.33729880178359   -1.40667981171890   10.88661272410600
H        -5.20925889665283    0.71149290656219    8.80646424082450
H        -3.46462768409884    1.01012373111531    8.74483094645347
H        -4.27287477715812    0.81806122326449   10.30267849730484
H        -1.14516605231677   -1.20358421168074    2.83559715498619
H        -0.77985844647202   -0.61920981365096    0.39827089392278
H        -1.75461207852597   -2.02702110310121   -0.04497512561427
H        -0.25212352491299   -2.24669927819999    0.83893868293376
H        -1.65369067874201   -3.62298934112257    2.45224501171504
H        -3.20316466911695   -3.16913037888832    1.72964587228399
H        -2.88331215382104   -2.82243304549183    3.43539100373735
H        -3.31756734862442   -0.44291983357631   -0.04060648526333
H        -5.14531014461528    1.18251379621401    0.07390782825584
H        -5.86730719787379    2.07911667620005    2.23531378287719
H        -3.98680943704394    1.53533618134850    5.37204259993149
H        -6.16766836771429    0.80727525625248    6.33971085984406
H        -5.36036468341228   -0.50248794701512    5.46398190264808
H        -6.72211138048280    0.34592367703790    4.72486365620337
H        -6.49633046506138    2.84235750819976    4.23011127160009
H        -4.88831294308245    3.57279755992100    4.15315219824569
H        -5.64113147251530    3.23958305287398    5.71488331247357

