56
CSD_code = KUFNEF | q = 0 | S = 0 | Stoichiometry = C20H30ClN3OPt | MND = 4
Pt        4.04214439009722    0.57933609950963    2.16284331701819
Cl        1.83199622036994    0.11701530538574    2.26299452973825
O         6.08119600865679   -1.55610653410436    3.41057263365836
N         3.84591666518220    2.60729675683257    2.89863738537990
N         4.53169069456615    2.79847909292393    4.03438348703034
N         5.98914577108579    0.98483667715761    2.28126148422064
C         3.09172982874443    3.07969052057700    0.15585218684882
H         3.11029756920140    2.02234561421204    0.44720956385272
H         4.10529771594524    3.39914991566202   -0.08245858039633
H         2.47951110346146    3.17019511561663   -0.73774404304485
C         1.06629566043517    3.50973358663784    1.57585252659201
H         0.65136098142280    4.09726232190481    2.39247182017089
H         1.03757428335225    2.45915566962697    1.85277730366356
H         0.44707867581844    3.65444228069093    0.69409704126768
C         2.52318805997645    5.41205505405031    0.84806447237320
H         2.00621217870244    5.51718763015694   -0.10268893810648
H         3.54345811660888    5.77072653884515    0.72570135894382
H         2.01659791740706    6.03914040648843    1.57739507120216
C         2.50799007870744    3.94202534468789    1.28075898911126
C         3.32504140288748    3.76691623972216    2.53029470861848
C         3.67724283609218    4.73098304647217    3.48403954983850
H         3.39575673551739    5.76148095529118    3.47408189787007
C         4.45449430570512    4.09154597445327    4.43231254574498
C         5.05181274825339    4.67886047966342    5.68471503894292
C         4.46704585509051    3.98598569482981    6.92393175555061
H         4.85706914957202    4.45509648450485    7.82437281449541
H         4.70930459796501    2.92792900835445    6.96304955081154
H         3.38378724682094    4.08362026331465    6.92787652482799
C         4.68355780258070    6.16645195546843    5.76004165845460
H         5.08949844686819    6.59790604890212    6.67201183141466
H         3.60503136160194    6.29799301956551    5.77493496650506
H         5.09508959071064    6.71006452209009    4.91345905244635
C         6.58424608788966    4.57628094772327    5.67073363659685
H         6.97861120527329    4.92514102220540    4.71843097645760
H         6.93126053943980    3.56145329058233    5.83554799673496
H         6.99813112562655    5.19926455544092    6.46034966041100
C         5.31807154541368    1.67847481905596    4.50592848358102
H         4.65189122478222    0.80420028763817    4.59514085860354
H         5.74944633335730    1.89499727684279    5.47930320042935
C         6.40368671586034    1.36676628187935    3.49693899453140
C         7.74825131465314    1.49201995088018    3.79652575337019
H         8.06035115240289    1.76950138413825    4.79102112515010
C         8.69186215619266    1.22647676456406    2.81581804789592
H         9.74545892856950    1.29294474293259    3.03698640966192
C         8.24934995571173    0.87781928571486    1.54990420684920
H         8.94531477599910    0.67652536181216    0.75167589923782
C         6.89042230823510    0.76709474611210    1.32664720987851
H         6.50338620899411    0.48900210552070    0.35545522303859
C         4.44003708644647   -1.39587805881947    1.69246190327194
H         3.55504670342127   -1.96067677782857    1.40183259238154
H         5.22801613894976   -1.47638948217626    0.93915758665885
C         4.92237449402280   -1.73104600735706    3.03914580617541
C         3.88857693008694   -2.30875343961942    3.98873292541443
H         4.25739348464047   -2.28562555513920    5.01226735122194
H         3.70671238436997   -3.34440671356059    3.70569685455160
H         2.94648720025073   -1.76968787803257    3.91119379285231

