41
CSD_code = KUFSAG | q = 0 | S = 0 | Stoichiometry = C19H14Cl2NO3PRu | MND = 6
Ru        6.00937183776233    4.69243239310013    4.50744155050336
Cl        8.34852158837335    4.35120216232888    4.29989354898956
Cl        3.71747600136683    4.90004946442755    4.05459002035932
P         6.94489166389352    3.15076291278077    2.16043985808955
O         5.61269683674759    2.88944329859206    6.86827988050277
O         6.10070409796544    7.15121421198536    6.19583658180934
O         5.99529671667558    2.88936109470133    3.27550699662132
N         6.31531440841825    5.67230415586549    2.72736124587464
C         5.76450555180316    3.61656091945731    6.01006691854299
C         6.07292336193931    6.21514110948975    5.54284735760317
C         6.05768028454752    6.95161196836319    2.47229930811734
H         5.49756167458507    7.49249992035463    3.22526561711824
C         6.46722401630408    7.57124703255213    1.30364246253357
H         6.24254068348679    8.61336136148826    1.14391207594556
C         7.16247290105506    6.83486391372150    0.35569655111742
H         7.50161835862816    7.29180678702338   -0.56147912057487
C         7.38871669730661    5.49134125004151    0.60045534870852
H         7.88228389096421    4.85907861053973   -0.12216810847013
C         6.95946171250604    4.95024398737128    1.80325635975494
C         8.53676730216977    2.29252372689523    2.21490249126820
C         9.70663086559808    2.77415092185631    1.64742727881648
H         9.72507546980746    3.74861181200099    1.18214891185555
C        10.85403640871746    2.00546863600439    1.71800272584571
H        11.77333145047365    2.37496431811495    1.28840003903961
C        10.82924966433906    0.76861985389916    2.34371005395608
H        11.73107406051172    0.17734737874410    2.39858883393049
C         9.65632273205711    0.29265265579593    2.90708271929523
H         9.64120031552593   -0.66770271480349    3.40067450833242
C         8.50385214221036    1.05418535373585    2.84105498303732
H         7.57691545118562    0.71156601598715    3.28264151122768
C         6.15786316185927    2.55910794963379    0.62650603462021
C         6.85702898466923    1.97755154376738   -0.42193296532494
H         7.92552094615622    1.83013169153279   -0.34214420764222
C         6.17506660565903    1.57558732641903   -1.55690991068827
H         6.71398671530024    1.11616848139632   -2.37247195170193
C         4.80390571931241    1.75717551721261   -1.64558909102506
H         4.27703503716586    1.43862072152439   -2.53278641264080
C         4.10637200864160    2.34041422635588   -0.59923786324199
H         3.03784488868491    2.47820991468921   -0.66852168487075
C         4.78236838719123    2.74419073363373    0.53706441526992
H         4.25118939844008    3.19132738131493    1.36814512729344

