54
CSD_code = KUFYUG | q = 0 | S = 0 | Stoichiometry = C26H21Cl2IrN4 | MND = 6
Ir        8.62107579676999    8.31874743097688    1.05626836764456
Cl       10.24524973897761    7.85989535007335    2.71539065795198
Cl        7.15403450532288    8.73020932785286   -0.75546819346745
N        10.13307588761195    8.55151523801356   -0.25477231682321
N        10.11989510780261    5.07150893989943   -1.07737933544598
N         7.08339893065679    8.01281284569579    2.34736508523137
N         8.49870381481570   10.50566239914152    1.68489898189797
C        10.74404706196900    9.69655040395733   -0.54277640463466
H        10.41138380715949   10.57570935472507   -0.00845314470069
C        11.75805741396564    9.79004301923674   -1.47718164851635
H        12.21952182583316   10.74506966462174   -1.67201494485608
C        12.16209795948029    8.64455270224112   -2.15155045216691
H        12.94931275328228    8.68938476124320   -2.88880076496576
C        11.53343794456801    7.45219313150030   -1.85729420237258
H        11.78871865900823    6.52311018784365   -2.34000549462338
C        10.52153728124023    7.43521254736769   -0.90195268778725
C         9.80042828168424    6.23055347823513   -0.51650240985699
C         8.80047095282578    6.40403743916601    0.45509726321776
C         8.13245746653536    5.25120014302844    0.85098842929384
H         7.36925219575768    5.28410587802433    1.61724445515609
C         8.45560938979484    4.03762393205880    0.26874433290424
H         7.95749777178579    3.13464264714129    0.58831961325069
C         9.45446844034046    3.98416581656432   -0.70932772621725
C         9.84569292287182    2.72719148942164   -1.36240045215599
C        11.15030741148263    2.57956288307105   -1.83030109897593
H        11.84009301640448    3.39822972579214   -1.69651555548634
C        11.54973210209043    1.40755217232559   -2.44227030732227
H        12.56542637504407    1.30250663715563   -2.79543125934200
C        10.65057645149465    0.36547023411168   -2.60224723842382
H        10.96156695176654   -0.55237370681609   -3.07949534604447
C         9.34832554744384    0.50744767054448   -2.15332457090062
H         8.64066500776785   -0.29826674158254   -2.28703013292557
C         8.94621543981312    1.67832191110097   -1.53742771392930
H         7.92167358137467    1.78415759223834   -1.21237406282861
C         7.21855598926773    8.28842487183215    3.64930102785421
H         8.19585712122297    8.61562885712678    3.97590761526123
C         6.19089086422314    8.13518361440670    4.56106001641492
H         6.36222236821376    8.37028623393466    5.59959525882016
C         4.95839074248682    7.67705083863408    4.12382446254837
H         4.13701317405092    7.54637849409052    4.81171800907042
C         4.81641077548487    7.38739302177650    2.77618231909498
H         3.88182417500343    7.02446890077184    2.37887207386497
C         5.89396211323505    7.56485150514488    1.92843005639266
H         5.80060534666137    7.35835052903848    0.87154572656127
C         9.33734172423740   10.99802881821635    2.59181980475061
H        10.08154579077290   10.30888800677174    2.97031422365906
C         9.27446446084766   12.30715149718917    3.03747248936460
H         9.97887386987017   12.65919203251979    3.77456865559960
C         8.29835225115253   13.14321654095382    2.51875766877874
H         8.22046935117238   14.17074342109136    2.84260036132551
C         7.42691241287842   12.62938496037718    1.57209026765886
H         6.65255995604895   13.23988335361655    1.13511418775175
C         7.56345351552128   11.30659412003655    1.18560129264405
H         6.91368620291217   10.86919387648406    0.43920476082860

