79
CSD_code = KUFZIV | q = 0 | S = 0 | Stoichiometry = C35H38ClIrN4 | MND = 6
Ir        7.39175483638482    4.77892828380565    4.63142236175555
Cl        9.58585921174450    3.98860697982830    3.82199246753768
N         6.56749625329496    4.90568268057513    2.80683400781780
N         3.33090055383816    5.61327990454157    4.15134960387617
N         8.16617392424731    4.50870078661111    6.43012977570637
N         7.09737866814724    2.67321807149419    4.87261027146498
C         7.21559826372821    4.70724429670310    1.66005099151166
H         8.27577704924306    4.50664947223805    1.74242546758418
C         6.58451773011861    4.74735508971733    0.43052083813821
H         7.15506337786469    4.57950788421652   -0.46908927227398
C         5.22093883249378    5.00973179048047    0.37665114798695
H         4.70455290541969    5.04979433788880   -0.57078142039267
C         4.54313770705429    5.22138735233519    1.56150345325293
H         3.48747610941303    5.43659676313722    1.59584811447069
C         5.24116456654006    5.16330455568065    2.76331041700308
C         4.63443074424806    5.37767888259306    4.06986771716025
C         5.52315992114720    5.31123167981294    5.16272599252868
C         4.93694057317054    5.52776283012439    6.40857544915241
H         5.53536161942646    5.49124538165589    7.31043089518681
C         3.58135984270679    5.78659060837246    6.50848834758680
H         3.12638878464292    5.93142942141100    7.47716124495979
C         2.79827484829227    5.82505246490329    5.34925015291520
C         1.35014760842891    6.07231011599794    5.38288768520933
C         0.74683071757651    6.80132511661528    6.40511317790529
H         1.34813952164187    7.22748930169608    7.19456068812499
C        -0.62001322748799    7.01026271853159    6.40462263084771
H        -1.07552356344771    7.58023781275616    7.20186288120032
C        -1.40573383539554    6.49746711406276    5.38624159882827
H        -2.47358385038199    6.66083202166806    5.39094240128335
C        -0.81423033380018    5.77988279621735    4.35903911013828
H        -1.42251124994198    5.38206002675084    3.55930276637242
C         0.55074650615831    5.57123036812591    4.35618734893444
H         1.02487346112873    5.01457476903260    3.56272656853138
C         8.57200617659367    5.44839429933719    7.28906911920268
H         8.33227752657847    6.46788773241345    7.02673465744554
C         9.26661824558516    5.17599979596976    8.44549523150272
H         9.56591799298810    5.99880161564215    9.07413042793754
C         9.57867597585581    3.85704562534995    8.78484140606556
C         9.12860678307477    2.88408853918840    7.90692116823222
H         9.30986492115381    1.84439259344462    8.11393513064745
C         8.43664865407205    3.22056403840799    6.74562192365287
C         7.93757987205796    2.21037291728492    5.80984784776836
C         8.29655973359250    0.86437009470980    5.86031733986497
H         9.00439561046526    0.53849091436870    6.60127917651233
C         7.78495622035226   -0.03777776089439    4.93948282332245
C         6.89163032047575    0.47234188642461    3.99566373815451
H         6.44442226532839   -0.16136349310023    3.24709855633736
C         6.58777006510604    1.81785812620570    4.00090932040014
H         5.90327982504434    2.22940192005947    3.27052788682445
C        10.36089376991176    3.55250378643533   10.04709903283068
C         8.15819988880719   -1.50770419166429    4.91821609997195
C         9.57180137507567    4.07153492199464   11.25746486459498
H         8.59662560822123    3.59134219949938   11.30759827832219
H         9.42131172062694    5.14593591950010   11.20152494877668
H        10.11205472284998    3.85087476757472   12.17514164843984
C        10.61039361249365    2.05413000683825   10.23586591247450
H        11.18404073418813    1.64646144350828    9.40667029079258
H         9.67405747779287    1.50811777383249   10.32920945516682
H        11.18189509018943    1.89509979792623   11.14763407312281
C        11.71887284427335    4.26379732760133    9.96433067181633
H        12.26742470703024    3.92728596709331    9.08736680657035
H        12.31064252168740    4.04026853680076   10.84906405233672
H        11.59914156912332    5.34139001203249    9.89806407476369
C         6.88469307461406   -2.34678272078874    5.09592116503338
H         6.40315084121675   -2.10880221923220    6.04247619268425
H         7.13484046009318   -3.40519331702040    5.09338488146522
H         6.17276410500428   -2.16471612240257    4.29567077512293
C         8.81057478056338   -1.82446683738032    3.56520120756942
H         8.12214310984690   -1.65161348682466    2.74260605571345
H         9.12169171451729   -2.86630691290985    3.53633128720993
H         9.68621437821314   -1.19695014739416    3.41417824252764
C         9.14239272862949   -1.88125270198693    6.02946589417829
H         9.37194894388701   -2.94271150348165    5.96609719994124
H         8.71698024214138   -1.68971242796128    7.01250271381283
H        10.07502298443567   -1.33136478389578    5.92666600958656
C         7.92932279754233    6.80165521290353    4.46342863916281
H         7.76074868022461    7.19299598048198    3.45754117227034
H         8.99869064506111    6.89334059664337    4.65789046990686
H         7.40660660578461    7.47222259790556    5.14854724766414

