24
CSD_code = KUGNEG | q = 1 | S = 0 | Stoichiometry = C10H8MnO5(1+) | MND = 9
Mn       10.54989333494022    0.19242094366298    6.43351721199110
O        12.43669397671777    2.21025507722544    5.40229159867707
O        12.65680460398233   -1.73259667677048    7.16564101410371
O        10.13327105778481   -1.09131205945854    3.81481246332536
O        10.46610537221892    3.08064279091934    8.55754027861096
O         8.87091240927785    3.37543818142837    6.53214122118820
H         8.24803203362428    3.45394400400280    5.79443164478903
C        11.73330252973608    1.40122760572353    5.77538633706799
C        11.86143625835849   -0.98663315726639    6.84786563710377
C        10.33208780804929   -0.59658757021568    4.81704315327727
C         9.32923787522571   -0.41742667395370    8.16147235546055
H         9.34400373674624   -1.35418134960594    8.70832693973544
C         8.48127764362295   -0.25409025816099    7.06074667485920
H         7.82840574831958   -1.05957346184024    6.74336141188429
C         8.36118085331220    1.01675454346050    6.45434412680268
H         7.63612984309231    1.16648619812485    5.66012903124379
C         9.04197569976934    2.13084070957714    6.96211402815879
C         9.92646443642912    1.96561938153150    8.09862553043936
C        10.07599864485047    0.67772592340323    8.64902830968558
H        10.66027464223219    0.55416062740099    9.55288870963808
C        11.38306221458528    3.04527818162088    9.63912502957481
H        10.90711000953227    2.68715244792712   10.55521390027871
H        11.70093862367068    4.07638797035517    9.77805317803497
H        12.25110064392127    2.42516662090807    9.39680021406954

