35
CSD_code = KUGPIL | q = 1 | S = 0 | Stoichiometry = C13H15CuN3O3(1+) | MND = 5
Cu        1.79920590215524    0.93002179605649   -0.22418647461397
O         0.87996488593450    2.03140507956518    0.95347085925078
C         0.93933517336097    3.30899623229145    0.80242384508332
O         0.31820567982903    4.08699202146217    1.48074999806231
C         1.83697975145496    3.80151012366173   -0.36772500426351
N         2.78434869732156    2.72511561015741   -0.71283270302930
C         2.52534288855784    5.10981839974754   -0.01243012706616
N         1.40531750062558   -0.67766531781101    1.02725667193390
C         0.71255233800217   -0.60249071571640    2.15091277593096
C         0.71984956723078   -1.72884866839834    2.92516459078713
C         1.36664305101494   -2.88898610177263    2.60735738650786
C         2.06084998563938   -2.93832104560776    1.40330306943148
C         2.05928478450236   -1.77835928653617    0.62764336680971
C         2.74260508670993   -1.66451945498156   -0.66280615846241
C         3.34711341238383   -2.73432843070337   -1.32192465627711
C         3.94087486053576   -2.52693149395095   -2.55574807802035
C         3.90467122218580   -1.25791296608091   -3.11348752167259
C         3.28370664802137   -0.24508035625118   -2.40183048076734
N         2.73229897463731   -0.43731001149048   -1.21335138085178
O         0.03807178546554    1.11326368189923   -1.65486579816971
H         1.16930220920573    3.94746613273010   -1.22464470286012
H         3.13006520926785    2.84756632097033   -1.66143595560152
H         3.58401658873911    2.78377479414695   -0.08110877746654
H         1.77591768558723    5.81062912365629    0.34616922058084
H         3.24734038146127    4.95622511027521    0.78774142630475
H         3.03054086448007    5.54138432705052   -0.87378273358592
H         0.22018182608500    0.33042702185320    2.37477817666212
H         1.34583188300629   -3.74206747276538    3.26918241436185
H         2.59065639819456   -3.82753448292250    1.09996608804870
H         3.34860583936067   -3.71902056986282   -0.88673330153188
H         4.41555166976399   -3.34437471820871   -3.07593541257366
H         4.34407634323745   -1.05532909441974   -4.07618010718212
H         3.21625810206923    0.75434175098278   -2.80302018921706
H        -0.50694526833270    0.32332807712337   -1.73052988732756
H        -0.50792192769578    1.78061458385124   -1.22136043921757

