102
CSD_code = KUGPIN | q = 0 | S = 0 | Stoichiometry = C45H53NO2Ti | MND = 12
Ti       -3.24688434727436    7.28566227361342   12.30503051193998
N        -4.34667059328995    8.62635791056065   11.54963374839696
O        -4.31219043612533    6.13267539645572   11.49416682927772
O        -6.59725135417383    6.16964331634945   11.69816804025325
C        -3.92290230177584    5.95053608812738   14.27629478830502
C        -4.72015719784357    7.11560232164039   14.23104670271672
H        -5.79949752271697    7.15122478531946   14.17375737155733
C        -3.88229897127810    8.24478773901579   14.36899706915374
H        -4.22360558477378    9.26313826621727   14.51042579544743
C        -2.55413181193579    7.78609919387666   14.47692818484281
H        -1.69110308129854    8.38497277962203   14.74589501613393
C        -2.58010616009326    6.37407644154759   14.40238830503316
H        -1.72818018471595    5.73390493945657   14.58481876037264
C        -4.42952214093390    4.52664637098769   14.25976717867736
H        -4.61929458680213    4.24362056970065   13.21297321213987
C        -3.42354265749244    3.52814946625372   14.85503470153048
H        -2.46540429776073    3.61199318516792   14.32901035184585
C        -3.21442215501566    3.80412194231720   16.34468694791381
H        -2.48453216203787    3.09821649653912   16.74972655931770
H        -2.82672565623627    4.81346242644443   16.49123704076370
C        -4.54325093490452    3.66094930097904   17.08274813591837
H        -4.39184968972114    3.86586151861849   18.14900387737852
C        -5.54334516597031    4.66341029092390   16.50850475128323
H        -5.16463889628084    5.67968634792373   16.63808524096680
H        -6.49516696054612    4.58596833441009   17.03952455185130
C        -5.75692626472175    4.37526255370721   15.02337196948851
H        -6.49327801810978    5.07165702258839   14.61195591654994
C        -3.95581747793506    2.10578532696839   14.67689702402119
H        -4.10623019310103    1.89273657568839   13.61493511480791
H        -3.22745251334949    1.38806964512061   15.06365273698243
C        -5.28056837706833    1.95604696786051   15.42183266226296
H        -5.65992291265917    0.93586340412973   15.29133421431302
C        -5.07238070347362    2.23838282876921   16.90872184672137
H        -4.36103360147997    1.52327180475413   17.32938609860341
H        -6.01803088916229    2.12338019725871   17.44356546561421
C        -6.28749551709450    2.95216449719938   14.85281798448458
H        -7.24354848232315    2.85319355925563   15.37258274828815
H        -6.46152727615396    2.74374975800976   13.79601007572797
C        -1.46274358337813    6.08078875914315   11.32064852482269
C        -0.62088182018617    6.77403181221966   12.21414318665851
H         0.01764361782364    6.33509504256973   12.96589992741476
C        -0.65722851677929    8.14213520200677   11.90735914897706
H        -0.06324497996670    8.90819534786878   12.38451183516466
C        -1.50847555241037    8.32604105864737   10.81227353372534
H        -1.66174068068098    9.24810895691031   10.26716213840655
C        -2.01338121197234    7.05664064959757   10.43356109932936
H        -2.56138057364061    6.86603378725897    9.51742661356530
C        -1.66993079698565    4.57950311621232   11.26344182300869
H        -2.47553711281898    4.32007200979850   11.96927975316804
C        -2.10571898649315    4.09164804666136    9.87246690347068
H        -3.00293875200555    4.64297431668636    9.56678906812869
C        -0.98663869561125    4.31192295028641    8.85493821471544
H        -0.74139744277673    5.37341639680148    8.79110240077562
H        -1.31532908017384    3.97903280542946    7.86705945849380
C         0.25244486159379    3.52825784193948    9.28328606493675
H         1.05598295070937    3.68900463007118    8.55535411830854
C         0.70355537488328    4.02267468807827   10.65637807695258
H         0.94133158748465    5.08720393401818   10.60597169187714
H         1.60379027074176    3.48755283332535   10.96857135727326
C        -0.41308379569940    3.79281536511881   11.67339040795727
H        -0.07856719486906    4.12181331216948   12.66299139093699
C        -2.43968245068083    2.60068758202862    9.94249265107106
H        -3.24676525224624    2.43217187429474   10.66042004701879
H        -2.78302078321374    2.25249631416176    8.96492428872904
C        -1.20023108667338    1.81555948896530   10.36719401140796
H        -1.44209307460258    0.74737815439542   10.41787962620438
C        -0.07997616051061    2.03839962251405    9.35257159177312
H        -0.39244091518415    1.68108764977984    8.36842038626681
H         0.80635512259985    1.47167891948467    9.64763254945200
C        -0.74433720158612    2.30172269422319   11.74090041192800
H         0.13962939384185    1.74251140406914   12.05755916380245
H        -1.53223564231551    2.12543251187011   12.47764621412591
C        -5.50414184446572    8.10488939328898   10.86033625596981
H        -5.51266035577713    8.42508053358622    9.80539931369232
H        -6.44026452339873    8.43730672285970   11.33819234528707
C        -4.24140016191287    9.98831811996643   11.63190208323601
C        -3.15474117532772   10.56650975797446   12.31873306513261
H        -2.41385861225237    9.92120408012148   12.77690405481318
C        -3.00962400462013   11.93372687753381   12.41917218590036
H        -2.16013523743139   12.33455063447246   12.95543383136401
C        -3.93056118172353   12.80701899279535   11.85198139536463
C        -5.00620427068005   12.24914385066621   11.17410090433164
H        -5.74128637752147   12.90020885844708   10.72113921425414
C        -5.16707183149954   10.88296371543810   11.06171857294312
H        -6.02464621967117   10.51462663649926   10.52141942427158
C        -3.76056278046371   14.29307778334040   11.94749802524025
H        -3.28236571005687   14.67745025124709   11.04534572014897
H        -3.13737523020160   14.55797799594925   12.79849235504711
H        -4.72485815204252   14.78667311155533   12.04997775391661
C        -5.46754678938166    6.56048406880041   10.93286359519355
H        -5.58421231908269    6.12659358149588    9.91186336581079
C        -6.99559574411346    4.86063606881003   11.63230217246381
C        -6.23215171995712    3.83536962689393   11.08537454091128
H        -5.24045441614722    4.03460328620390   10.70857461885912
C        -6.73987896133581    2.54701009475100   11.04263091645418
H        -6.13977931672967    1.75757933708033   10.61335098153675
C        -7.99729950427476    2.26588359041195   11.54521218220587
H        -8.38536753180336    1.25940956721850   11.50805970137995
C        -8.75115973784539    3.28565796624535   12.10534987743951
H        -9.73143978817084    3.07545272578495   12.50621112357687
C        -8.25845289206291    4.57419343994780   12.14903229630533
H        -8.83604836864882    5.37917840864670   12.57536291620771

