101
CSD_code = KUGQOU | q = 0 | S = 0 | Stoichiometry = C46H53NTi | MND = 12
Ti        4.30276789041412    6.59884319225218    5.63274399110642
N         5.14360658891211    5.56745528466800    4.29276936582886
C         2.20032911793048    5.42380617301458    5.25091942654633
C         1.88974812718609    6.59165164093895    6.00041621077405
H         1.18182908749295    7.35754456160577    5.71361047805561
C         2.50277169937803    6.49864895730159    7.25705999195855
H         2.33891785105869    7.17127076299945    8.08881292023260
C         3.25803174445690    5.31263140317532    7.28423529589665
H         3.74506162526167    4.89097948126758    8.15660794179640
C         3.06300920645009    4.64561575795042    6.05140749219884
H         3.42930199384628    3.65289596579702    5.82414619126092
C         1.62375196376158    5.07282925735865    3.90086364721785
H         2.12571287591825    5.69448274718434    3.14583515777229
C         1.83022197509352    3.60151598405684    3.51037991746017
H         2.89570136944038    3.35224360606159    3.58955126852785
C         1.37736795716392    3.40625232009721    2.06229947532951
H         1.96005313520005    4.04895848028805    1.39780016321469
H         1.54574126417132    2.37014820365256    1.75831117230594
C        -0.10614798243145    3.74894654876939    1.93548438841432
H        -0.42470117277063    3.61353058170788    0.89528750976410
C        -0.32997867018005    5.20067200751602    2.35323777884661
H        -1.38880297781166    5.45352145510185    2.25910695291074
H         0.23393942039034    5.87065036345053    1.69878997394192
C         0.12103051304285    5.39094206929000    3.80128481128633
H        -0.05060086496759    6.43274621239299    4.08859282143013
C         1.01328274468401    2.67647236358181    4.41347596739906
H         1.18254614655071    1.63696895439665    4.12119213095242
H         1.32319154268581    2.78947476323824    5.45302987884375
C        -0.92312190189485    2.83159408966405    2.84373602096318
H        -0.78575540670800    1.79015842543796    2.54299501726591
H        -1.98571661562311    3.06871390609123    2.75200417967219
C        -0.68010640528074    4.46959567406799    4.71806626602697
H        -0.35059814337468    4.60409646623710    5.75086480458967
H        -1.74120090762735    4.72502744593859    4.66426574735817
C        -0.46982397779951    3.01831809200557    4.29076678631402
H        -1.05183597270287    2.35684358211513    4.94298208510177
C         6.43311336028995    7.73158647312114    5.70624489600873
C         6.28687186489388    7.04449215696029    6.93195945283411
H         6.99214921285198    6.33278450980039    7.33957503782775
C         5.20742906101759    7.60654798905878    7.64316101547198
H         4.94394229794782    7.37582874980678    8.66746025883153
C         4.63778877801571    8.60765038980118    6.84732831927586
H         3.85275384595074    9.29570520977850    7.13844146190118
C         5.38318076221455    8.68152739287813    5.64428677719165
H         5.26395053525930    9.45709165432573    4.90087079515888
C         7.55904628588926    7.51565147990957    4.72386890074993
H         7.42319802605276    6.52569410157276    4.26754372168949
C         7.60453273664887    8.55034782218666    3.58973086213738
H         6.61881517289998    8.60380242640730    3.11088348064591
C         8.64118640188261    8.09565670367559    2.56020095161185
H         8.36659662830064    7.11597807819728    2.16045456020627
H         8.66883721762856    8.80010535311589    1.72528707874827
C        10.01902011213529    8.01655225613323    3.21771151484722
H        10.75685058721212    7.68367480045051    2.47844856254184
C         9.97792063754765    7.02634996357291    4.38013140698854
H        10.96242146169004    6.96817879060889    4.85056589165622
H         9.72144150056572    6.02810805106559    4.01611790686705
C         8.93984141126315    7.48437147526982    5.40440941440845
H         8.92158415444308    6.76888850866266    6.23255579421491
C         8.00395674282033    9.93245524697223    4.11000060996246
H         8.02818148372001   10.64027405692581    3.27736518063782
H         7.27880750169750   10.29446061768875    4.83895440860308
C        10.41408275870023    9.39350979431949    3.74878498512417
H        10.46808682453985   10.10991280475731    2.92555270061147
H        11.40148798860885    9.34311409056622    4.21373989352587
C         9.30999091710176    8.86767878615213    5.93332725891467
H        10.27539975908555    8.82253279680163    6.44317451916855
H         8.55957846674883    9.19576269288753    6.65650540218174
C         9.37769397887277    9.85643032685002    4.77102740056088
H         9.65605049513059   10.84696049699765    5.14936367973094
C         4.90973617449457    5.95451686284169    2.91533524367898
H         4.45477803090537    5.11275900352949    2.36507964907462
H         5.85627939703190    6.20429052412112    2.40330959186932
C         4.00923132301569    7.16559243231538    2.87297242642682
C         3.59588476038196    7.65536530690149    4.04243190862578
H         2.92637951388348    8.52115092147903    4.03979869905212
C         3.65873686944466    7.72816437531789    1.55522542540377
C         3.42338195611134    6.91774675608159    0.44505622467656
H         3.50234591659484    5.84410764718393    0.53427094587747
C         3.06850729490978    7.46771380549377   -0.77267064097658
H         2.88197787151571    6.82054154910802   -1.61779516289778
C         2.95052748778053    8.83985930290649   -0.91288938049898
H         2.67608057770206    9.26798959815869   -1.86555800223870
C         3.19124822536150    9.65892090886833    0.17773736572347
H         3.11052606746059   10.73164331792341    0.07558068607911
C         3.53991460028798    9.10953412241256    1.39622858160107
H         3.74054099299854    9.75668317998361    2.23821658088433
C         5.99064802297678    4.51436752293710    4.49661854250589
C         6.22430139436161    4.04408108938550    5.80679199369787
H         5.70102458667845    4.50817586076412    6.63621838867783
C         7.09456409358296    3.00755612927542    6.06006095428286
H         7.24630957491642    2.68129784353825    7.08051600003170
C         7.78205363690131    2.36548223630519    5.03413786565730
C         7.54637197940488    2.80220386282072    3.73940919038896
H         8.05556291015814    2.32074776807214    2.91546066708423
C         6.67747006480881    3.84070817701338    3.46693319357211
H         6.54199342787288    4.12829145802104    2.43597901916317
C         8.72402644059350    1.23777364268063    5.33050260051381
H         9.45278985799357    1.53416654159695    6.08415573414679
H         9.25650742404182    0.93199731204347    4.43321566496182
H         8.17838571490634    0.37635811293947    5.71690271351001

