180
CSD_code = KUGTUD | q = 0 | S = 0 | Stoichiometry = C87H89N2PPd | MND = 2
Pd        2.93291618923950   17.07571159735327    7.38606355481296
P         3.88208413646506   15.32361651277088    8.66386062935631
N         3.67238014562073   19.79289376102483    5.90645028866385
N         2.89376713882764   18.34660105308606    4.53873178848399
C         3.42963364579656   18.47114541188587    5.77153060126584
C         3.28851565917359   20.48209800724960    4.78149850505383
C         2.80274534290242   19.56737270111564    3.91434453304411
C         4.32954303819406   20.35871797122523    7.03069761420568
C         5.71459314115064   20.55347566080325    6.97297126253721
C         6.35155095078508   21.12107963528229    8.06333894338860
C         5.64794306070201   21.47614480758902    9.20787364305897
C         4.28071148830279   21.26357749756699    9.24674560196780
C         3.60294443388306   20.71283197042296    8.16691277910678
C         6.45584619651694   20.15028711457950    5.71443108359375
C         7.94556399523574   19.97967209701952    5.90918343759374
C         8.48896172366749   18.70535388567996    5.99559389464585
C         9.85037835570649   18.52860020075741    6.16784574699034
C        10.68777292219604   19.62627607646888    6.25625257767933
C        10.15653295786226   20.90110323180373    6.15759353796310
C         8.79628147343641   21.07694044894554    5.97933152364848
C         6.21261844140871   21.13212014909695    4.58750197544174
C         6.29356309658221   20.68908860763794    3.27382757421982
C         6.08145335719574   21.55715787358556    2.21943172757662
C         5.80041988735136   22.89003721009544    2.46744138782695
C         5.73987328221546   23.34657826113526    3.77289093006953
C         5.94425827883817   22.47376073192931    4.82749823195752
C         6.36566853643287   22.10469567493994   10.36306790252019
C         2.09691677977121   20.57901360859026    8.19774132119869
C         1.41980103304441   21.91775569223007    7.98373821638523
C         2.09353048864256   22.99794043490882    7.42891097146647
C         1.44363300265081   24.19990178534185    7.20828589340957
C         0.10817625386464   24.34276586530182    7.53846815971145
C        -0.57506837320439   23.26980444303282    8.08472185007289
C         0.07347101666847   22.06782703896527    8.29911511738347
C         1.63757301744267   19.88465438415011    9.46222858430946
C         1.34006299035962   20.59018356244873   10.62238697729064
C         0.88160184687094   19.93060627657846   11.74915514812465
C         0.69000833507198   18.56010065215542   11.72486307033967
C         0.99284055253280   17.84960065222391   10.57635552260124
C         1.48448845503431   18.50294700649124    9.45966014869785
C         2.52814464243857   17.11033065634468    3.94414603488184
C         1.35391460956493   16.46500731650326    4.34812922970082
C         0.98383770167258   15.29440978694723    3.70589542647248
C         1.75702729745477   14.75315490290113    2.68727132127228
C         2.93783897320724   15.38629243537468    2.33353439942627
C         3.33791133990425   16.56208895877801    2.95295446254230
C         0.54059785966339   17.07874393331712    5.46465519025623
C        -0.45740124051784   16.12122006019765    6.06281480347242
C        -0.09202225851888   15.38575048300821    7.18247638577404
C        -0.97743259400309   14.48672913448186    7.74743095867556
C        -2.24028064673292   14.32188376254908    7.20308841579762
C        -2.61340263196810   15.05864269665827    6.09202317820472
C        -1.72598234572212   15.95402091975199    5.52219113653852
C        -0.12758951140077   18.36212620355894    5.03612616099918
C        -0.59058797931346   19.24261690008565    6.00735409188264
C        -1.21948377945435   20.41964530278529    5.64781546636634
C        -1.39113540940357   20.73679804949683    4.31111749073860
C        -0.94679154694254   19.86028321140473    3.33743345096066
C        -0.32458061721662   18.67819286529228    3.69748093689845
C         1.31813595560115   13.51074297036335    1.97368773291489
C         4.66733547478846   17.19099025291128    2.60295610801723
C         4.75127257200102   17.71168036308842    1.18723643546115
C         3.62278749343074   17.87425441698639    0.39586446382123
C         3.72507335901504   18.41051584264889   -0.87652505473348
C         4.95628826473303   18.79740898537967   -1.37428479473366
C         6.08716024818198   18.64775376626375   -0.58880283460704
C         5.98387983439154   18.11310468657507    0.68149803652430
C         5.73951173205073   16.18118866763419    2.95694489147237
C         6.31140153228835   15.34263881089154    2.01027185366640
C         7.27499925858807   14.42069062932253    2.38081049693311
C         7.68135554463995   14.32969071196453    3.70027486608210
C         7.10090507809120   15.14900141379258    4.65357022958572
C         6.12569747129188   16.05861908241329    4.28678466895729
C         5.46053748988597   16.03424134674492    9.37748476029592
C         5.08929376102600   17.45010694894521    9.83262890061757
C         6.27037839093984   18.15215498125842   10.48926446525261
C         7.45649807849158   18.20634342093982    9.53299909692777
C         7.81979886099537   16.80627119210512    9.05465626730912
C         6.62029183966808   16.13100706550984    8.39368077498944
C         4.43422839034363   14.11811624801008    7.34492688704423
C         4.99381316389996   12.76729280493107    7.77464491403101
C         5.50643518814033   12.01444125509687    6.54724467019780
C         4.38294403816584   11.82221047496365    5.53295955840961
C         3.80317463645928   13.16970640976649    5.11078794671639
C         3.30477888791096   13.94144771915713    6.32678793252152
C         3.38767879392523   14.20682828833665   10.09293430700584
C         3.29790504947199   14.94034052620242   11.43106353778773
C         2.87319207890837   13.98417985384578   12.54441034817639
C         1.52917286318050   13.33829453742491   12.22755712456854
C         1.60837772689952   12.60601280657457   10.89297437618518
C         2.03511067143296   13.56727747414057    9.78840906893282
H         3.37845338766826   21.54439666208442    4.69762274363132
H         2.40843831308235   19.67906688122259    2.92604073378328
H         7.41810365053621   21.28660063246942    8.03169663098937
H         3.72536091674443   21.53542187444324   10.13100843029202
H         6.05823780933992   19.17517566045314    5.40447804681791
H         7.84476675163635   17.84178331317462    5.92062062053247
H        10.25866377736056   17.52996646788654    6.22717388203038
H        11.75049938248243   19.49039723520818    6.39280737438978
H        10.80530760583730   21.76321371459462    6.21472839347503
H         8.39411104825856   22.07526587698992    5.88263600947976
H         6.52696726829542   19.65308307206884    3.07632732376836
H         6.13227958218407   21.18913127651413    1.20506946544526
H         5.63191027188343   23.57149939317877    1.64685524964107
H         5.52851796335745   24.38736887780212    3.97269998217447
H         5.88281509914246   22.83608768151869    5.84475867909645
H         6.54938085240825   23.16007699930415   10.15904465403146
H         7.32810986496929   21.62350213857491   10.52461637067870
H         5.77572786837748   22.03321134620178   11.27350842680460
H         1.79503945952164   19.94029216007628    7.35383106408014
H         3.13852607923113   22.90760763252869    7.16908303200240
H         1.98608582866467   25.02935788998229    6.77750188531984
H        -0.39737475460001   25.28235539958920    7.37095267953253
H        -1.61955588261469   23.36933604594972    8.34424377204576
H        -0.46932070106679   21.23659715119872    8.72593874391156
H         1.44378762768769   21.66632090444283   10.64175586125222
H         0.65733325508718   20.49293206012347   12.64436949918325
H         0.30617094978277   18.04967758377802   12.59642904151245
H         0.82780922879005   16.78192571087008   10.54057005090023
H         1.77797989398972   17.91369254648034    8.56156762459050
H         0.07620661202187   14.79276057273664    4.00677796473760
H         3.56338678029683   14.96005017501540    1.56333644688792
H         1.27583857174291   17.30943737039410    6.28397522345707
H         0.90702613243777   15.52433429547963    7.60724977786702
H        -0.69134676368686   13.91120667582495    8.61554417687304
H        -2.93410210722490   13.62259119862176    7.64676751765410
H        -3.59923072191067   14.93517913661258    5.66700750809881
H        -2.01881568655698   16.52984635670523    4.65542370004632
H        -0.46588676750654   18.99290438333542    7.05287522746014
H        -1.57443898952678   21.09603885993495    6.40993365151248
H        -1.87570874634619   21.66046743349638    4.03122438000030
H        -1.08866437250297   20.09444418846024    2.29180862794093
H         0.00738012287174   17.99265818852046    2.92975791809212
H         2.17532059592099   12.90206079504866    1.69401580727962
H         0.78304173746411   13.77536317630898    1.06082244139656
H         0.65031997906195   12.92032884388766    2.59655531558856
H         4.81808907381819   18.05973665508693    3.25613398385657
H         2.65424482360620   17.57852359875655    0.77293181217373
H         2.83672979498904   18.52762667217577   -1.48034313017897
H         5.03524916743177   19.21517103015466   -2.36710740442764
H         7.05334969328948   18.95050877689555   -0.96627421376045
H         6.87254821131169   17.99789289947237    1.28650151874209
H         6.01181147081437   15.41573492304540    0.97446726102218
H         7.71289456775372   13.77440260230056    1.63394720282647
H         8.44240555133472   13.61830203542070    3.98611971687283
H         7.41269723107582   15.07774026816235    5.68545733545775
H         5.63934045474431   16.66737793876625    5.04062649814656
H         5.78340781443483   15.43095700449677   10.23444708372482
H         4.76370964533892   18.01534623822830    8.94097159930135
H         4.24489220885483   17.41862810460240   10.52732694834101
H         5.98063199841062   19.16263257520061   10.78291181537343
H         6.55734143667499   17.60926153221306   11.39480035177000
H         7.19279808740194   18.81933238430886    8.66994301124115
H         8.31739390059676   18.66838137426210   10.02258834716944
H         8.14635834136593   16.20232483578163    9.90603239010953
H         8.65132944963228   16.86346882213793    8.34848389269939
H         6.91977662715301   15.13634466983179    8.05683802653321
H         6.29379667414880   16.71916011439902    7.52969942920453
H         5.22069693783092   14.66718044045349    6.81375830280422
H         5.80834845494620   12.90103911759015    8.49180416412467
H         4.21558438481575   12.16760604978982    8.25093345583998
H         6.31509025606926   12.58201985217814    6.08068823881903
H         5.90722172139801   11.04320287550723    6.84855600266067
H         3.59390810568750   11.21128342114729    5.97931079497660
H         4.76178150107665   11.29054301851425    4.65706675867692
H         4.57312688867893   13.75191548646491    4.59943317285762
H         2.98125297097938   13.01706570654081    4.40946840181812
H         2.46164700367144   13.40493976724636    6.76883709729035
H         2.95641175081868   14.94225465407940    6.01949614053315
H         4.15529366697117   13.42918897962008   10.17708726374837
H         2.57271531518497   15.75244485949467   11.35617720957283
H         4.25970954327711   15.37868710122898   11.69926359433056
H         3.62959671287895   13.20294268139949   12.65830071800547
H         2.81234878981868   14.52886810546565   13.48963725269402
H         1.24950322007674   12.64378255627730   13.02296977057300
H         0.75871702651424   14.11142576487792   12.17269234477649
H         0.63860694243190   12.16501983775527   10.64842708982287
H         2.33395700258035   11.79173807102833   10.96821036341904
H         2.07087591439066   13.03602363229467    8.83550833084740
H         1.29259902521643   14.36402603892087    9.69957526448222

