115
CSD_code = KUGXIU | q = 0 | S = 0 | Stoichiometry = C44H65FeN3OS | MND = 4
Fe        5.80576537122158    5.98822697095269   12.19613219402908
S         7.30953920203789    5.94762563797512   10.70822093422010
O         4.21949775056255    5.48375407406717   10.78205880087486
N         5.07308171640590    4.78729071348329   13.56732476508073
N         4.72276290715625    7.49057770810517   12.94708979810788
N         2.25005312090677    4.64335196002331   10.04495632345222
C         3.52200409044302    3.91586401068376   15.38886117183047
C         6.02285965294802    3.75692170192400   13.55395467745977
C         5.02664984742293    8.59546222374081   12.13693093122359
C         6.73682834831291    5.92080752304260    9.05416423403106
C         3.06412540675893    5.13311590827657   10.98491656105104
H         2.60019903015794    5.19717516140075   11.98056169522418
C         4.11811772037135    4.98938649095009   14.44941429549091
C         5.89271267022357    2.61250430816516   12.73816740190648
C         6.30146278710016    9.20156630742749   12.22629780366276
C         6.07232297064476    7.03475767859209    8.54513716987304
H         5.92706957300620    7.89395971135687    9.18429298281452
C         2.68892265294771    4.50162730460392    8.67637918633730
H         3.73881631696230    4.77936825776967    8.61581434599236
H         2.10734255821185    5.15131896219296    8.01911061400226
H         2.56482796850284    3.46862372771199    8.34602905280057
C         3.52295830705559    6.24837581626188   14.56298932451154
H         2.72557467561315    6.31564398467994   15.27636766479048
C         6.87928509714206    1.63942516110169   12.76559337931211
H         6.78179584574995    0.76667040073768   12.13724615194506
C         6.58756433185796   10.31595860559359   11.45418500952269
H         7.54570318197235   10.80114465485782   11.55305363331158
C         5.60632432142071    7.02727639393046    7.24550744527107
H         5.08575827335664    7.89215124582268    6.85907016767088
C         0.89441582099283    4.25438686219622   10.32561008960580
H         0.67245868959070    4.40922005721093   11.37940102287287
H         0.74507596357032    3.19870324608898   10.08450765724733
H         0.19633085511311    4.84445838188869    9.72590403780287
C         3.88774502759650    7.46355659057736   13.96378555651367
C         7.97907516254841    1.75058504511420   13.59298180794270
H         8.72617036135511    0.97113888857833   13.61516358458428
C         5.67172048004949   10.82341123897526   10.55444955714941
H         5.91230665132992   11.69119291680038    9.95840003390545
C         5.80398469848517    5.91859653170046    6.43605901260018
H         5.43510880177072    5.91486729051258    5.42057185727877
C         3.28651838680998    8.69053977734914   14.69137388641036
C         8.11901100637902    2.87527889134200   14.38094590767099
H         8.98671353151462    2.96830050336107   15.01671440202848
C         4.45189912556512   10.19498347870315   10.41498268727116
H         3.74750450654896   10.57681234422026    9.69115004102695
C         6.48881251089015    4.82064056578871    6.93211610215334
H         6.65912506778301    3.95938692096117    6.30156181549090
C         2.15408994668663    3.52378840514084   14.80605454976147
H         2.27952482682010    3.05166211469542   13.83356600422238
H         1.51551858782725    4.39628487544752   14.68631108963348
H         1.65289051035521    2.81900910975155   15.46751911430776
C         7.17137683524778    3.88606077959938   14.36557591472959
C         4.10426637560272    9.09686955292235   11.18889240697436
C         6.95959794903414    4.81967547079003    8.23127564621821
H         7.50087743111470    3.96971096423414    8.61952203707351
C         4.34879226802438    2.63794324775200   15.54817846111066
H         4.48837049663893    2.12211521442169   14.60709746223377
H         3.82510585888683    1.96232320520018   16.22466881518277
H         5.32694086375889    2.84755580517177   15.97028933118114
C         4.71254759844474    2.42290232951613   11.81419032199382
H         3.99268244095287    3.21991105539152   12.02056716179885
C         7.36921782270528    8.67639179648598   13.16213570486131
H         7.09184418175847    7.64764361206031   13.43984838420521
C         3.33024179074296    4.48570777992796   16.80752176677824
H         3.18214630848352    3.67128932645298   17.51426482162890
H         2.46155607426335    5.13410385193108   16.88013530002913
H         4.20828979538399    5.04896699470282   17.11447204463239
C         5.19161545134367    2.55770318802775   10.36844560350932
H         5.57208770044411    3.56159133791417   10.20234561489309
H         4.37659817508901    2.36985134788242    9.67318667673339
H         5.98841825278621    1.84707362701240   10.16282635456409
C         7.46068771814335    9.52265170035223   14.43508820433009
H         6.56318103206208    9.42267882519290   15.03913766414352
H         7.59351358066060   10.57369223522424   14.18449827609265
H         8.31020005559070    9.20518073934534   15.03658538310493
C         1.74959157605350    8.60652416597264   14.68302039790146
H         1.38124418382158    8.36005872173786   13.69155915286603
H         1.32558730004048    9.56353963908953   14.98111714625393
H         1.38072556886491    7.85649002636796   15.37715180489675
C         4.00608375354664    1.07714281436798   12.00469980230239
H         3.68303644785648    0.93611528640631   13.03375204265721
H         4.65903878989797    0.25005239489010   11.73879166902499
H         3.12683989740362    1.03001061725654   11.36364816747934
C         8.74061428342016    8.63323245987623   12.48413774585392
H         9.45176146367562    8.10632615679850   13.11518951979207
H         9.12971515553000    9.63358447177447   12.31291617712162
H         8.67643549353858    8.11322686417066   11.53240325001548
C         3.68577601115683   10.06614784474435   14.14997844702395
H         3.29118587091265   10.25076705999588   13.15862545551669
H         4.76254075338929   10.18545242185842   14.11091270823227
H         3.28886394427958   10.83099035503750   14.81784090847199
C         7.42014915922249    5.13326925512599   15.18160359596021
H         6.60080410251670    5.83859543805033   14.99784318997197
C         2.75193908923614    8.46740917484603   10.93246149812767
H         2.61687026160809    7.64254317062862   11.63789951584786
C         3.78401365892522    8.64615814259409   16.14912548499098
H         3.38434930237739    9.49501226758358   16.70131850035202
H         4.86997540631140    8.69862718169554   16.18029676977822
H         3.48149337510737    7.73694210469717   16.65849901479622
C         7.48164906995394    4.84715345979892   16.68305991616433
H         7.67321038050097    5.76871385406187   17.22939388443789
H         8.27695877289005    4.14185264711896   16.91323815474420
H         6.54259490700420    4.42941704252966   17.03818942558303
C         1.58714847527074    9.45230101064254   11.09027565239105
H         1.57846846464244    9.92437373180573   12.06793186046142
H         0.64233886421487    8.92677938685613   10.95778291093529
H         1.64072273204484   10.23718830147634   10.33962324957838
C         8.72375449947711    5.77996791147934   14.70707751244426
H         8.69993220297997    5.90111014446033   13.62494552263181
H         9.58081377522207    5.16177920009768   14.96360045036808
H         8.85498249862856    6.75237935172547   15.17585896294670
C         2.71384675978476    7.90867797806917    9.50632193848691
H         3.54173309632419    7.22763759006120    9.34196311515695
H         2.78819824300150    8.71429134181688    8.77980776595652
H         1.77503013613469    7.38472838308203    9.33473082112214

