106
CSD_code = KUGXAM | q = 0 | S = 0 | Stoichiometry = C41H60ClFeN3 | MND = 4
Fe       10.82096761159490    1.12850015656380   13.14713160422086
Cl        9.31496096944749    1.65545550570868   11.90389452591177
N        11.14043369520675   -0.42953686218012   14.35697533144181
N        12.66796258083907    1.74614280082095   13.55749964021171
C        12.45633367091676   -2.02774462255032   15.85783863442710
C        12.16886535433326   -0.69778198842425   15.12618454950484
C        13.18165449257530    0.25883571838491   15.30934539380411
H        13.87215395836882    0.04781291802634   16.10087186761651
C        13.47217590104883    1.38433655248357   14.53757105178738
C        14.72278900148484    2.16580794720985   15.00196891248893
C        13.79596578585489   -2.56408097263676   15.31971093432944
H        14.03850171027115   -3.50789183590273   15.80484521385293
H        14.61307928585941   -1.87172106034832   15.49556878906396
H        13.72843305333242   -2.73648091845214   14.24761388700164
C        12.57693379735574   -1.76716441278501   17.36980425144408
H        12.56579352807580   -2.71198922107115   17.90987318616580
H        11.74824432259905   -1.15810393522814   17.72110799796751
H        13.50218086686703   -1.25733106287101   17.62260415834103
C        11.43381294560287   -3.14966582621937   15.66007464647123
H        11.80381399293914   -4.04782745154639   16.15474430569670
H        11.29116890713705   -3.38396441303064   14.61077216785478
H        10.46846568124293   -2.90651361540754   16.08748581241036
C        15.29277526397583    3.17633240704524   14.00377772736092
H        16.14025205395112    3.68399657115032   14.46452468074871
H        14.56668480083384    3.92935615905537   13.72646252409941
H        15.64250744643876    2.69178056018547   13.09769023194334
C        14.29541636777179    2.93965605816379   16.26097211986402
H        15.14297429834952    3.48954770165330   16.66663215708311
H        13.92541284566792    2.26369927802699   17.02837381387094
H        13.50565882913743    3.64791224388288   16.02075208811669
C        15.87446462060520    1.20804397262373   15.36545555028481
H        16.81452813234384    1.75588160310623   15.38693657229480
H        15.96161194808422    0.41042948348232   14.63187662335126
H        15.74398556376693    0.76048733306067   16.34713214769413
C        10.00842600364653   -1.23617735643401   14.13733754023562
C         9.89627282103460   -1.99162493780334   12.94886139357134
C         8.80769941656074   -2.83244842800970   12.77024788308064
H         8.74291111976917   -3.43642264264124   11.87809563838637
C         7.80302149340613   -2.91922110826315   13.71116286769337
H         6.96601524316594   -3.58410558165843   13.55883270648452
C         7.87129384414649   -2.12672682599604   14.83861031232724
H         7.06799259327068   -2.16881960322960   15.55833849809962
C         8.94904336394255   -1.28623528185243   15.07252290600401
C        10.93596417376857   -1.92797094483358   11.85162166054290
H        11.65645496794610   -1.13623684730111   12.10232281547320
C        11.68940292928882   -3.25483628176340   11.72256239010852
H        12.24528859278279   -3.48061664363950   12.62965963856702
H        12.39413157007462   -3.20872040472185   10.89490145939762
H        10.99822102758058   -4.07339011876754   11.53430030338202
C        10.27697231603281   -1.56817542794629   10.51653447407023
H         9.78416987896382   -0.60145977742849   10.58896870012773
H         9.53527417333414   -2.30903541839884   10.23042455876450
H        11.02234609099166   -1.52280679723737    9.72641912976930
C         8.90470120811598   -0.41405864889635   16.30622806622069
H         9.81667493053266    0.18637997122962   16.33504143241336
C         8.79709115997019   -1.20919941237158   17.61096474376833
H         9.63981766183592   -1.88092264422574   17.74566358752296
H         7.88641926164962   -1.80315607583791   17.63129388763119
H         8.77095683257709   -0.52164006977553   18.45464185933141
C         7.69807987936671    0.52580342270087   16.20164695455949
H         7.66273442162770    0.98579336279413   15.21841996763334
H         7.75979578381514    1.30813875740971   16.95595967956861
H         6.77143059762701   -0.02239396818072   16.35503222634926
C        13.01488283715506    2.52683191712161   12.44285478833710
C        12.61004254520996    3.87350456853168   12.30442380796946
C        13.00448928368733    4.59227372331216   11.18608942963479
H        12.70017259162930    5.62315211314038   11.08571231880087
C        13.79270877152855    4.02643312369785   10.20447789448768
H        14.10365704853456    4.60878401120914    9.34992306327613
C        14.16790546534379    2.70330205497235   10.32179740598376
H        14.77132701356739    2.25673580167767    9.54585714630995
C        13.78392502435560    1.93925798621293   11.41261403363077
C        11.76460113609552    4.57039327323585   13.34470174031327
H        11.56098332473581    3.85101802400050   14.14080580677263
C        10.43427093965944    5.00795409634767   12.72755196823007
H         9.93252003476471    4.15716312166440   12.27567100715822
H        10.59382623266429    5.76063805514294   11.95930051399599
H         9.78822357630905    5.43335507859195   13.49291524726267
C        12.46299833372096    5.78852823929886   13.95777831949973
H        13.38898966199568    5.51311103162621   14.45672719924533
H        11.80754152324101    6.25104925760776   14.69398383547348
H        12.69569787418300    6.52956250087903   13.19671038009948
C        14.16046558709924    0.47491858722649   11.43522048599341
H        13.71009259384289    0.01332675289475   12.32054634605262
C        13.58869768250325   -0.20455279441315   10.18783332690756
H        12.54417943060961    0.06816298926720   10.06359546449754
H        13.66976596104457   -1.28546913110452   10.27561305427427
H        14.12984205780700    0.10229226997495    9.29580520316520
C        15.67342887538010    0.25375872789768   11.49201400113999
H        15.89148707348601   -0.81253097959016   11.47439514882131
H        16.09879236603033    0.67302619658307   12.39941539977743
H        16.16539379876748    0.71695545821759   10.63956825663087
N         9.88220544792497    2.45432034330794   14.93223187260356
C         8.79656452755312    3.20437980015572   14.80837724882498
H         8.25905765051156    3.10423099133029   13.87578919878469
C         8.34184862945479    4.08338337303831   15.78802135299399
C         9.07755497307815    4.16744406125744   16.96242574005138
H         8.77002275801558    4.83777553655111   17.75303638103820
C        10.20924927125908    3.37972501062791   17.10507323380161
H        10.80248106661143    3.42020296590431   18.00561810138461
C        10.57166284943073    2.53923088760817   16.06784210388182
H        11.45383257666820    1.91823692623994   16.12658286657564
C         7.09585597318855    4.88161626640599   15.57400991350998
H         7.07003137813253    5.74822826719179   16.23015278660770
H         6.22218938620261    4.26575727260025   15.78746325767575
H         7.02436822676635    5.21180120312979   14.54038296894402

