99
CSD_code = KUHDAU | q = 1 | S = 0 | Stoichiometry = C51H38CuF3N3OP2(1+) | MND = 4
Cu       -2.60968410731768    8.33946743193968    5.31726926951760
N        -1.42973772193557    9.89535268312490    6.13337348483318
O        -4.70004465229900    9.24035351038049    3.29266784068686
F        -2.89403412416534   13.14149361414784    0.24464042340318
P        -2.51488348664180    7.68025342182774    3.16291298570529
N        -0.81788443638521   11.03414213960337    5.82073019946977
F        -0.85854299555098   13.83142073951741    0.16069259371134
P        -4.69983076858912    9.14693469094514    5.95020411125957
N        -2.20530645226707    7.51319665535114    7.16359991585824
F        -2.34268525575290   14.98309808997659    1.20691121633694
C        -4.09655148077977    7.20615740459692    2.39582774172993
C        -5.12004012620369    8.14238775744124    2.59704907852836
C        -1.80201332954439    8.85534410176813    1.96995803307544
C        -4.78763480737582    9.63357612910134    7.69318990869477
C        -1.46712248778222    6.22381218127307    2.86783604130025
C        -1.06838249929315    9.57870501287251    7.37318094912508
C        -1.60578582081379    8.38271039591779    7.99014758706911
C        -5.63655594258727   10.43756839427782    5.06099650364261
C        -5.91734540990420    7.80013829367463    5.79070999592799
C        -2.27877536481819   11.47804763175510    3.96690163334756
H        -2.99784359571989   10.80529204829380    4.40775395478865
C        -1.06199360873396   11.68840713285292    4.60721050490635
C        -5.55785855132585   10.25115896494623    3.67642835771283
C        -6.40965378210819    7.89203645621756    2.16767919598068
H        -7.19781541544187    8.60704206621823    2.34982365705167
C        -1.04773250527403    5.85381330730978    1.59286717531772
H        -1.33954339707655    6.44721018519002    0.73723749514751
C        -7.26362984280305    8.00263064994807    6.08212780661893
H        -7.59376382678545    8.96064141102368    6.46057003437552
C        -0.19193160750539   10.56215045072399    7.87615644538811
H         0.27792766513949   10.59510940414114    8.83623246183638
C        -4.18726605263540   10.84123371552561    8.04894361352283
H        -3.84048469270780   11.51051148868279    7.27043951949268
C        -2.74791723258996    6.41639071592083    7.67411827803131
H        -3.21512770347023    5.74058881273581    6.97089891593446
C        -1.53742397147072    8.16289683900193    9.36426163383216
H        -1.05729992002667    8.88644570006239   10.00217083762405
C        -5.49302116742911    6.57073395542299    5.30118044763700
H        -4.44357970709985    6.42982689716451    5.06438139285092
C        -1.07458406545932    5.47516135903471    3.97183402294054
H        -1.38883591822279    5.79317334457393    4.95955740060624
C        -2.56122795214296   12.12942683453052    2.78481624620007
H        -3.50804904395890   11.97344415163576    2.29333264923835
C        -5.20354016111381    8.75458676491845    8.68758420710372
H        -5.64677257279649    7.80613292655960    8.41597682741334
C        -1.92659570098496   13.72835441853244    0.96274736107266
C        -0.05378789927356   11.46536399274314    6.85478258778803
H         0.50226797453394   12.37898616118846    6.81157195583878
C        -1.61928530010897   12.98733650269288    2.23518857505991
C        -0.51881553228750    9.31103635984758    2.26379022358884
H        -0.03387267609413    8.96514709120407    3.16875770818058
C        -2.44307457309577    9.29041231439872    0.81792740888462
H        -3.43781275313042    8.93936576627199    0.58261389882336
C        -2.72515379631907    6.12331060858471    9.02577901811258
H        -3.17656411592924    5.21589037225809    9.39221090780638
C        -8.16909694223047    6.97695445574244    5.88569308994561
H        -9.21282702672752    7.13243668123232    6.11355438718528
C        -2.10657251896317    7.01773416963300    9.88852765989967
H        -2.06962010639608    6.82381378012468   10.94922008714761
C        -6.37489239134911   11.49278804291433    5.57174771911370
H        -6.43617500961736   11.64809166533936    6.63923497974320
C        -4.38687690945358    6.00507624141183    1.76899073147772
H        -3.61106949530168    5.26602687619574    1.63366678314123
C        -0.28311855421119    4.35303414473045    3.80437564301190
H         0.02082727619944    3.77149741835482    4.66193579351249
C        -6.21638701596260   11.09531495825144    2.80238740487944
H        -6.14206704005793   10.94616236774839    1.73530381563907
C        -4.04462341194854   11.18183421278061    9.37962220437213
H        -3.59107335243754   12.12377744888193    9.65056252194080
C        -6.67632640687055    6.69363203526526    1.52280042788014
H        -7.68024701869277    6.49037052644318    1.18415665826242
C        -0.25553989886823    4.73236591548090    1.43127550692204
H         0.07000918694460    4.44289721090813    0.44349224970392
C        -0.40032670643649   13.19856290307400    2.86765841197048
H         0.32569354701882   13.86420060900325    2.42743348729173
C        -6.96648178889517   12.13815522359530    3.32769694404493
H        -7.49052986531480   12.80254205943115    2.65861219591148
C        -7.04139885903395   12.33646763057882    4.69656746925319
H        -7.62704313972280   13.15411684576877    5.08747748735956
C         0.12601852646928   10.17435929107730    1.40069747053198
H         1.12712548906796   10.51381456260597    1.62092588928470
C         0.12361032686611    3.98082747434839    2.53345773661324
H         0.74276069178816    3.10685929999344    2.40049419859749
C        -0.11845874415463   12.54912152860965    4.05376824591862
H         0.83499893424796   12.70298178263200    4.53311139339749
C        -5.67571102417377    5.75854958920745    1.32255706630332
H        -5.90031765513724    4.82828990096225    0.82478083009376
C        -0.51186343372172   10.59905668243865    0.24452051771428
H        -0.00754365071283   11.26969618139502   -0.43397395252395
C        -6.40365144240745    5.54945827112298    5.09989147463833
H        -6.07063937808749    4.59900957462279    4.71085352474224
C        -7.74210513273096    5.75369510703281    5.39105569852077
H        -8.45549028778174    4.95977803374865    5.23184727824089
C        -1.79442006657397   10.16211693324830   -0.04066560804335
H        -2.29035717094333   10.49697291472269   -0.93895591023187
C        -5.05511655343951    9.09939313657632   10.01898998618663
H        -5.38946499973380    8.41975539484386   10.78854664356532
C        -4.47776518461505   10.30955875141807   10.36670012408918
H        -4.36334152433139   10.57354271665836   11.40685149218367

