127
CSD_code = KUHFUP | q = 0 | S = 0 | Stoichiometry = C68H46N8O2Si2Ti | MND = 6
C        -0.98167378941351   -0.10029776191408    7.04108931411700
C        -0.08859690791608    0.80921508466866    7.74385885381000
C        -0.23103170031845    2.11170645039666    8.19245700666422
C         0.85271881222518    2.69676968502932    8.82658474961700
C         2.04777180258534    2.00394058937330    9.00548151094703
C         2.19962624779811    0.70197596711455    8.55736236182565
C         1.12044718002682    0.10832757915225    7.92491109528034
C         0.91651816760831   -1.20919688066721    7.34205127181776
C         1.68954169259416   -3.33671747017175    6.78465706015226
C         0.84298373109963   -5.08520548379099    5.71386250177445
C         2.20995133772849   -5.44604853483365    6.05993151907773
C         2.97422051549112   -6.57794143118922    5.83069158424389
C         4.28105466032705   -6.57703324313702    6.29054691508396
C         4.81380353912717   -5.47607630346158    6.95718793819010
C         4.05788485924772   -4.33815502840574    7.18641930133158
C         2.74985607691540   -4.33206051434079    6.73273304083081
C        -0.21548009775206   -3.49694434371804    9.61352929786556
C         0.18752216420472   -2.26886912473329   10.12785099490260
C         1.48517972557674   -2.06590361526651   10.56475913163731
C         2.41126970896848   -3.09084276148257   10.48291084713230
C         2.03187225189952   -4.31847906912039    9.96766355726482
C         0.73145559702429   -4.51441292883904    9.53774640258170
C        -2.48439257400482   -5.57023789569863    9.10452861806073
C        -2.49529656772829   -6.41458444992892    7.99853174160726
C        -2.86371376684171   -7.74269299983415    8.11226404776787
C        -3.22942703202582   -8.25142447914834    9.34740695464784
C        -3.22429348703427   -7.42582855569757   10.45974252526892
C        -2.85502961678246   -6.09830065335630   10.33590916870970
C        -3.19945117988832   -2.53773838546384    9.62404708800432
C        -3.18382328379942   -2.15683354116404   10.96114250044184
C        -4.07830840727321   -1.21874773308112   11.44585448476038
C        -5.00591002781220   -0.63985220749689   10.59577551240666
C        -5.04455070491847   -1.01530407997560    9.26327123470664
C        -4.15185126309961   -1.95956052049258    8.79042208764477
N        -0.34262279699534   -1.28014140306006    6.84625219277557
N         1.84891016631731   -2.13854466485470    7.30654826139760
N         0.58264888961768   -3.84185137551957    6.18673825411847
N        -2.19830075177702    0.22914739336719    6.65683935918338
O        -1.84159919953309   -3.47018754725222    7.30962536283057
Si       -1.95426846659277   -3.76080798109164    8.87393982938038
Ti       -1.07973217817348   -2.81965560989235    5.84046563498280
H        -1.15925113947946    2.64150827457655    8.04893667117503
H         0.77339331339644    3.71083632149394    9.18995901504632
H         2.87061213101286    2.49599198791064    9.50306459376670
H         3.12113987526994    0.15797993427123    8.68904401533869
H         2.55610176620228   -7.42440376158597    5.30970051315556
H         4.90315960429458   -7.44521121585205    6.12913559035887
H         5.83783047954228   -5.51370421292189    7.29882371181353
H         4.46104579937844   -3.47982955457150    7.69927522755701
H        -0.52878671623502   -1.45962579625335   10.19069899459433
H         1.77401619627813   -1.10361498172429   10.96373969167005
H         3.42569753349604   -2.93459793811616   10.82050321648833
H         2.75102459820446   -5.12270787301748    9.89676561824516
H         0.43868493590352   -5.47723486861781    9.13840633675164
H        -2.20881549374695   -6.01072160048530    7.03508486875706
H        -2.86620806508550   -8.37967830825634    7.23850515333906
H        -3.51870923166119   -9.28825658747004    9.44343135090964
H        -3.51062057750137   -7.81998675918360   11.42468379725800
H        -2.85541531343555   -5.45691539836085   11.20546607497994
H        -2.45790683723152   -2.59982245026499   11.62862697733159
H        -4.05054522008655   -0.93399266800031   12.48840157162196
H        -5.69867801295057    0.09918933273728   10.97227023962514
H        -5.76846602029143   -0.57263098732618    8.59295739402799
H        -4.18882854843949   -2.26856970687667    7.75387307552805
C        -1.17776634330949   -5.53902056311366    4.63983325806110
C        -2.07083755732371   -6.44853683657179    3.93707523233741
C        -1.92838335481502   -7.75103651837937    3.48850228271552
C        -3.01211494884927   -8.33611111246442    2.85436496699034
C        -4.20717067497300   -7.64328657924837    2.67544999128619
C        -4.35904338511288   -6.34131712428327    3.12355166983653
C        -3.27987800487496   -5.74764613092540    3.75600192013954
C        -3.07596162592281   -4.43012314484122    4.33887261158285
C        -3.84898692056795   -2.30260960289699    4.89628123496466
C        -3.00241763836817   -0.55413131492762    5.96707308375355
C        -4.36938016849848   -0.19327490883482    5.62099616287364
C        -5.13363362138351    0.93862826379503    5.85023222574588
C        -6.44047818490611    0.93773102404948    5.39039600965788
C        -6.97324005731697   -0.16322313711256    4.72376905167161
C        -6.21732949998596   -1.30115542257552    4.49454127780530
C        -4.90929916674811   -1.30726319596176    4.94821955414519
C        -1.94395833415809   -2.14233924462189    2.06740155418999
C        -2.34691380674511   -3.37034768674068    1.55288511051676
C        -3.64459508522001   -3.57332538690454    1.11605099243678
C        -4.57071518570660   -2.54842793010702    1.19805167990014
C        -4.19134815646579   -1.32084683659589    1.71345159549910
C        -2.89094660387569   -1.12494150621091    2.14341625444509
C         0.32499527975838   -0.06908090945720    2.57642242395514
C         0.33579386503937    0.77529047800878    3.68239459670608
C         0.70422991726792    2.10339338874056    3.56866448510103
C         1.07002305550783    2.61210171680379    2.33354284673959
C         1.06497191675046    1.78648897947423    1.22122722611871
C         0.69573709550256    0.45895411204211    1.34506552863226
C         1.04002189582657   -3.10155179134524    2.05687550712027
C         1.02445427826267   -3.48237972886942    0.71975602785268
C         1.91888650755533   -4.42052155646774    0.23504897489862
C         2.84641422750229   -4.99951548727234    1.08514534011633
C         2.88501103076188   -4.62412736911250    2.41766979305772
C         1.99233247238528   -3.67984700871691    2.89052246117762
N        -1.81683558336122   -4.35917699096293    4.83468410658052
N        -4.00835815665693   -3.50076891821279    4.37438462785596
N        -2.74208410823628   -1.79747627861830    5.49419010260556
N         0.03885699690938   -5.86846833467027    5.02408382100155
O        -0.31784364577606   -2.16913332451194    4.37131673945629
Si       -0.20517206183775   -1.87849999890769    2.80700204867252
H        -1.00013859623639   -8.28080579366874    3.63199710239742
H        -2.93277205570577   -9.35017392907998    2.49098398458640
H        -5.03000289703863   -8.13535620764766    2.17787419334520
H        -5.28057066192203   -5.79734323157033    2.99188410612916
H        -4.71551485745841    1.78506720504275    6.37126061179261
H        -7.06257566891467    1.80591374963415    5.55181953744410
H        -7.99726113200145   -0.12557863961961    4.38211003193794
H        -6.62049207199926   -2.15946246760506    3.98165310016738
H        -1.63071667049172   -4.17972336889456    1.49042346293239
H        -3.93351121504131   -4.53568943962957    0.71730566485924
H        -5.58514030400912   -2.70465481482540    0.86043986865080
H        -4.91041846785177   -0.51652125718147    1.78408467001587
H        -2.59805969208587   -0.16200069870568    2.54238377454553
H         0.04949875760289    0.37137116664347    4.64587814700301
H         0.70687157153157    2.74034803687832    4.44244875128921
H         1.35932450132442    3.64892854543359    2.23752219158971
H         1.35116215292925    2.18069304797149    0.25625966393549
H         0.69589272361084   -0.18237788476541    0.47546498299868
H         0.29839126328390   -3.03955454422373    0.05232477004184
H         1.89103792688144   -4.70535782893908   -0.80747334015653
H         3.53921039353445   -5.73851753542976    0.70863022347098
H         3.60904998252899   -5.06667220356979    3.08793582288213
H         2.02943997584479   -3.37071334199588    3.92702948549151

