37
CSD_code = KUHGOL | q = 0 | S = 0 | Stoichiometry = C14H12Cl3N7Zn | MND = 4
Zn        5.51864192431879    0.00000000438604    3.42891398535489
Cl        3.31977788112801    0.00000002168192    3.92622708189679
Cl        6.96015396195203   -0.00000000361944    5.07606199857200
Cl       -0.05539814128104    0.00000000400368    2.86790914933949
N         5.03067324524854    0.00000000364010    0.87686223569987
N         5.55640263963584    2.02649597817315    2.72431684917749
N         2.99512440227302    1.14931311425654    0.96870870424749
N         1.80129947511452    1.14780301828897    1.45295083013954
C         5.62194251667728    1.25360758433694    0.44285888769531
H         5.23275512323446    1.55321142849692   -0.53796092428749
H         6.70454514522948    1.10994626596389    0.37420374798055
C         5.34286425591914    2.33940486431066    1.44976019187507
C         4.91770181370460    3.60422423136960    1.06826971672177
H         4.74152139861147    3.82299717913728    0.02748299702567
C         4.70072528967996    4.56012141768547    2.04579246384675
H         4.35261272526815    5.54594394949399    1.77789078896184
C         4.93262886262086    4.22597812856484    3.37110686392853
H         4.77708585211555    4.93904065708772    4.16420106483049
C         5.35834241330544    2.94332961936486    3.66441154050769
H         5.55410278538071    2.62854572439187    4.68044540845624
C         3.67648991392336   -0.00000000060735    1.01987760356974
C         1.34895181292061   -0.00000000411288    1.94946952772972
N         5.55640261543889   -2.02649597426774    2.72431685504318
N         2.99512443294459   -1.14931313746391    0.96870878141618
N         1.80129951211047   -1.14780304725832    1.45295091882440
C         5.62194252157874   -1.25360757770627    0.44285889634849
H         5.23275513934177   -1.55321142158839   -0.53796092031248
H         6.70454515064220   -1.10994625839423    0.37420376803199
C         5.34286424983987   -2.33940485943761    1.44976019463714
C         4.91770181999358   -3.60422422840549    1.06826971145830
H         4.74152141934861   -3.82299717483714    0.02748298904703
C         4.70072529038673   -4.56012141773296    2.04579245378774
H         4.35261273577884   -5.54594395064271    1.77789077282140
C         4.93262884742033   -4.22597813035066    3.37110685723206
H         4.77708583456183   -4.93904066210037    4.16420105445266
C         5.35834238602763   -2.94332961950550    3.66441154172412
H         5.55410274742270   -2.62854572666588    4.68044541215702

