59
CSD_code = KUHGAW | q = 0 | S = 0 | Stoichiometry = C32H16N8S2Ti | MND = 6
Ti        5.24023195545120    0.34646663288023   19.39853685728001
S         5.75183618920075    1.57783640984551   17.43539252162157
S         6.90332504908663    2.00313841958791   19.05050769095279
C         1.56895711344053    5.19706947881619   21.61513291324649
H         1.33371625681311    6.06544491770471   22.21247123726834
C         2.89987556007548   -1.64043501853763   16.45451950855748
C         2.11234691789874    3.00325718031879   20.04500796509025
N         3.75862549528970    1.39865408911833   20.17786897272073
N         6.02387287400289    0.34345893099360   21.24956543596932
C         5.70988387302843    1.22739172175022   22.24382590446852
C         7.14350835375272   -0.33980773788771   21.63432193620750
N         2.10088481197156    1.15995554922364   18.46185031092481
C         2.66309694551734    1.79981220753964   19.46208232743009
N         7.83317506154107   -1.19263562935776   20.91587821193956
N         6.25305152315014   -1.32826456155904   19.11737220083331
C         7.54191818673096    0.07393092392529   22.96507569647346
C         9.12470325291951   -4.22094529408306   16.95532637218623
H         9.50538501672375   -4.89618760200793   16.20342854660140
N         5.15703629631892   -2.18099317443218   17.16253534423824
C         8.57822714962405   -0.31107151232834   23.79934070123267
H         9.27570513088060   -1.07366926396737   23.49209902482318
C         6.73817212263016    1.70050334277188   24.58163924151964
H         6.03668932483153    2.46709285083037   24.86920093935202
C         7.86824898515214   -3.66457857797921   16.79862039410057
H         7.24974394872885   -3.88300823139806   15.94296907734888
C         1.03423854410516    3.80633667954302   19.70397435570026
H         0.42910792907217    3.57312643528693   18.84267999178690
C         6.62994959506699    1.07090958115150   23.35279479489895
C         7.45026075155890   -1.59438477818585   19.72510998488568
C         0.77700252566712    4.90462854240348   20.50419448330545
H        -0.05334373773068    5.55312813844780   20.26716422627673
N         3.84656285512721   -0.46064930866992   18.19577978148166
N         4.77703719058131    2.14831416311125   22.21517867563007
C         7.42176768921000   -2.80098580245450   17.78777087955999
C         2.60589342781526   -2.51670188618148   15.42306839063723
H         3.31304880794118   -3.27574218320489   15.12943708970341
C         0.47768623208981   -1.38558418390979   15.17587649666793
H        -0.46530951924088   -1.30528095673036   14.65568508046672
C         0.76576905909375   -0.50524106430263   16.20549908881302
H         0.07407986954248    0.26504421372851   16.50659101485986
C         1.98787294225543   -0.64350670571109   16.84229451105275
C         4.05948723815522   -1.47880101151998   17.30892160114784
C         3.92060166966976    2.26425392749272   21.22571674459625
C         9.91672020301054   -3.92844767848733   18.06620488034094
H        10.89240694508967   -4.38390136746324   18.14877187918599
C         2.64508461472851    4.40121721638635   21.96348404836693
H         3.26402093841324    4.62020995535684   22.81867795528530
C         9.47919319664705   -3.06959761999463   19.05803343436925
H        10.08461333870439   -2.83598821335825   19.91901508465321
C         8.67979091375232    0.32158685097895   25.02716231885594
H         9.47706632739446    0.04777569550648   25.70220165461241
C         2.62587447378479    0.08842030382133   17.91842481373648
C         6.19278048888575   -2.05879817766117   17.96145106613514
C         7.77588418805810    1.30976028470042   25.41145534885841
H         7.89157178718331    1.78094412112016   26.37629096649769
C         8.22086550435587   -2.50585245351659   18.90853000294207
C         2.91140358026925    3.29834190212578   21.16581003301942
C         1.38163917151825   -2.37368306241718   14.79150452906733
H         1.12015386346207   -3.03846760916452   13.98157546021540

