73
CSD_code = KUHJED | q = 1 | S = 0 | Stoichiometry = C27H41N2NiP2(1+) | MND = 4
C         3.16177883014519   -1.82960191727152    2.41154090222376
C         3.92118781526104   -3.53195027559216    1.01788541292853
H         4.69525729106143   -3.53356360425754    0.24937321913184
H         3.16090509911209   -4.27820137847550    0.76260691784330
C         4.47114718177739   -3.75375722243232    2.41826546572766
H         4.26856723983089   -4.75388995846378    2.80359174772679
H         5.54939570426900   -3.56480736932722    2.46043415286444
C         3.00013365625084   -1.49455781403729   -0.03554100201321
C         2.78114022478146   -2.22507814196882   -1.20374289049979
H         2.76110762199456   -3.30231828315747   -1.17498437523686
C         2.56767744206254   -1.59412739341957   -2.41388748758807
H         2.39471990032415   -2.18460094397064   -3.29955740676852
C         2.58683916513357   -0.21306857618276   -2.48221577165966
H         2.44472685320545    0.29123195765294   -3.42469950364458
C         2.77996940632262    0.52061239343130   -1.32711556691826
H         2.78645263289447    1.59579997898453   -1.39710863968794
C         2.97686286453784   -0.09080583969790   -0.09173183263518
C         4.96279816195892    1.30083401786269    1.52498107472870
H         5.05222057825381    2.02843897464933    2.34009919226541
C         5.74317464472561    0.04912672671070    1.91669767596257
H         5.35386671859762   -0.36743411838203    2.84632069980820
H         6.79169297133546    0.29686669003744    2.07105193934204
H         5.68654454987012   -0.70179585714702    1.12946433216835
C         5.51029694450670    1.90453516194575    0.23696517824319
H         5.03073130535041    2.85023252998569   -0.00084128267925
H         5.37846561610455    1.22273586289026   -0.60141336407045
H         6.57564170417920    2.09487477902376    0.35291132945709
C         2.33869640970775    2.53893581401019    1.00674736745160
H         2.78806712941159    2.94365095850946    0.09577414584915
C         0.84917417280076    2.29435946497713    0.78259809651155
H         0.67672633362631    1.64681250575820   -0.07514438313856
H         0.33162110492589    3.23547265936635    0.61266711742942
H         0.41376887750179    1.81650401137965    1.66262346971692
C         2.56666599701532    3.53227219808187    2.14209358681199
H         3.60783495948574    3.84072674497144    2.20067091406489
H         2.27766945642335    3.09392544006882    3.09790103525407
H         1.96116175903046    4.42130310566558    1.98150450195468
C         3.71726580475186   -2.85618929678984    4.59426878974456
C         4.75140427818180   -3.55691816149824    5.21545995962170
H         5.58904677108610   -3.91352892289196    4.63852832970303
C         4.73966081389852   -3.79452666307232    6.57616331621368
H         5.55597689306798   -4.33357449428092    7.03007897117762
C         3.67878500383954   -3.34861973284140    7.34300797841510
H         3.64613048106308   -3.54773383548645    8.40228940517760
C         2.66061756051368   -2.63334756403944    6.74169855488478
H         1.84451564315423   -2.28816730056132    7.35473157994579
C         2.65899465236341   -2.36273458065322    5.37584493438058
C         0.65435956549369   -0.34978937556363    6.05271618539937
H         0.35945509557784   -1.02599322068502    6.85978626228373
C         1.74295585367735    0.59883327666419    6.54645858710438
H         2.59459114005284    0.05279585740943    6.94813319333148
H         1.35371562265006    1.25031164118014    7.32523899109143
H         2.09623835005900    1.22156167721088    5.72197680082597
C        -0.57851914601185    0.42210202175931    5.59245164481161
H        -1.41634789601943   -0.24275089185448    5.39589147741461
H        -0.36001749316756    0.98658461258334    4.68535570114714
H        -0.88190189928976    1.12642681745778    6.36361406252616
C        -0.00781975216594   -2.55770211287942    4.21571147266607
H        -0.86078627826335   -1.94072429254880    3.90969028322275
C        -0.40536496197475   -3.42982851904614    5.40086228895862
H        -0.80408234800713   -2.83857897492161    6.22081579474533
H         0.44321898834520   -4.00727864438039    5.76357723620209
H        -1.18050007248381   -4.12788529162145    5.09018580691235
C         0.41232504815966   -3.41362090687783    3.02403786303400
H         0.68085974068738   -2.78183318795068    2.17670819500343
H        -0.41117610443154   -4.05613437183658    2.71807594460250
H         1.25704818886441   -4.04980156604025    3.28590662304315
N         3.31155540374820   -2.20551097065033    1.13451558755533
N         3.74820388811370   -2.74440662117776    3.19499054745708
P         3.14157020587704    0.91529500507490    1.42457681306088
P         1.33898010478655   -1.33892360622054    4.63558984178644
Ni        2.25698026363868   -0.24085366425692    3.01909797651050
H         1.59717226631017    0.91835257922613    3.46247703082919

