43
CSD_code = KUHKUV | q = 0 | S = 0 | Stoichiometry = C15H20I2N4OPd | MND = 4
Pd       12.20283337267215   13.04632122687343   12.90331765263921
I        11.97585954112207   11.02515877393140   14.52859441089237
I        12.47223818195301   14.97109777114447   11.16592789814253
O         7.24166199295614   13.63500462317116   11.73845323697791
N        10.97293315386997   11.33254166042953   10.87986253064214
N         9.91114860295960   11.04836158716358   10.15606505545674
N         8.98894618188030   11.86667240004451   10.58569944521122
N        13.63535103697413   13.83823965453905   14.05426260686714
C        10.76983343039218   12.31740424350761   11.78022027543572
C         9.43865419523406   12.66265329843361   11.57602536493960
C         8.57855652799983   13.71981226438395   12.17805805713368
H         8.55679178305319   13.62567002965207   13.26959186692696
H         9.00880474319093   14.70624403243851   11.92380969185961
C         7.15322785191538   13.37440943575351   10.35350174438816
H         7.79021773315248   14.08799504379426    9.80292328313141
C         5.70977562545121   13.51057913923712    9.88631938755960
H         5.36528134979188   14.52454257181942   10.08839199795749
H         5.08939162944291   12.82429513859717   10.46444852299130
C         5.61578361803933   13.19450881425825    8.39541615934726
H         4.57664140738934   13.27145554614154    8.07402563970440
H         6.19476185229163   13.93078323936144    7.83390215866016
C         6.14656791371872   11.79458236626575    8.09140872593438
H         6.09703801998025   11.60642958503957    7.01848608249885
H         5.52100300436887   11.05222726939900    8.59126395380509
C         7.58935152186275   11.64284355965470    8.56827062970295
H         7.95517007943943   10.63212514425105    8.38502743923359
H         8.23591543981476   12.34011631831333    8.03109873138632
C         7.65055105671871   11.94726399463125   10.05913451817223
H         7.02265793990181   11.23627100876225   10.61303545082884
C        12.21426998971640   10.63280566229858   10.70135740242413
H        12.30359654230957   10.31519181725908    9.66437832027128
H        12.24938335978820    9.75829023355610   11.35746513998873
H        13.03900110466273   11.31659618919973   10.96603172200177
C        14.91861123739231   13.50198977899572   14.00745896250798
H        15.19538570446950   12.73894260013873   13.28176751959480
C        15.86087589701803   14.08465903364216   14.83670429606210
H        16.89536589642587   13.78807199271808   14.76925832105535
C        15.44646439566847   15.04517885965995   15.74603362322363
H        16.15589486655023   15.51777799806426   16.40794482590291
C        14.10290598913656   15.38789964760680   15.79104003110073
H        13.73793437007226   16.12912913362197   16.48405543080033
C        13.22929250194709   14.75916857105844   14.92333160449102
H        12.16106935730835   14.99608874118707   14.91603028215611

