88
CSD_code = KUHLAC | q = 1 | S = 0 | Stoichiometry = C45H36CuN6(1+) | MND = 3
C        10.52545865885505   -2.91526202567457    8.01220309196748
C        10.56117289381616   -3.39399943815937    6.71435105869955
H        10.12873923294538   -4.29757660142271    6.34088140798056
C        11.27162256282273   -2.44378283744442    5.96490497187412
C         9.92001138142914   -3.46440698227356    9.21200896596278
C        10.32996449916331   -3.05698928293089   10.48262587752028
H        11.12937437481832   -2.33751451015134   10.59435077693592
C         9.73998071735984   -3.58953733962079   11.61289663919117
H        10.06856794028244   -3.26936228717064   12.59016164269583
C         8.73325851609479   -4.53377597875294   11.49490141104273
H         8.27414125033137   -4.94691836893393   12.37943581176273
C         8.32141296869273   -4.94763562907482   10.23831376200085
H         7.53806691597335   -5.68348342664020   10.14236640935123
C         8.90870729984361   -4.42003698501799    9.10471554287894
H         8.57553619595091   -4.73501046335520    8.12845922916947
C        11.50390591959075   -2.47287334849057    4.52697557779802
C        11.41001587387992   -1.30352527263430    3.77587654437841
H        11.21308416965645   -0.36371933775541    4.27126470558872
C        11.53742449305559   -1.35316626894770    2.40049559527822
H        11.43982348099053   -0.44530648040965    1.82535611033561
C        11.78219465051969   -2.56039338311038    1.76561012458112
H        11.87652906265621   -2.59711009548948    0.69065861429744
C        11.90015043744415   -3.72299299843242    2.51005581160591
H        12.09720922527331   -4.66307741191020    2.01784848626044
C        11.75186927474621   -3.68380209491184    3.88345431845713
H        11.83934007677814   -4.58989392538555    4.46406384916031
N        11.65651840060134   -1.44394929644045    6.75970991445552
N        11.21176662226967   -1.74828977716773    7.99080657471850
Cu       13.00309778299460   -0.00007521491689    6.49793753255367
H        11.31476506212026   -1.09720915743120    8.75186709537210
C        16.76664119448484   -0.68782353835383    8.01237769973264
C        17.16332194583448   -0.41741321249082    6.71454139433593
H        18.16202262069500   -0.33996053792679    6.34099965230538
C        15.98514072931477   -0.27739692669043    5.96515593195414
C        17.54507956222404   -0.93762690265376    9.21206061595923
C        16.98740886284650   -0.78644004451857   10.48274650881160
H        15.96466035465621   -0.45378617129472   10.59458826553653
C        17.74368074054240   -1.03144848041027   11.61288576174138
H        17.30224360637422   -0.90702596804631   12.59022004740783
C        19.06469743195693   -1.43137263652194   11.49466328284011
H        19.65214176775146   -1.62256266194393   12.37910671125006
C        19.62893847637847   -1.58080042870085   10.23799775312013
H        20.65785836610749   -1.89126936330856   10.14188581074514
C        18.87830159871647   -1.33565286783124    9.10452971891112
H        19.31752826629329   -1.46657658945951    8.12819517725337
C        15.89411862156267   -0.06173985128510    4.52723346927055
C        14.92820294744887   -0.72765834596752    3.77633529221092
H        14.21294885686349   -1.36825788183038    4.27176866921018
C        14.90745253243841   -0.59262578897624    2.40092140463333
H        14.17018322882001   -1.13132301249108    1.82580555782141
C        15.83071080934394    0.22266936930846    1.76588148526832
H        15.81520921457512    0.32269759896063    0.69092571232658
C        16.77875755260197    0.90605801467854    2.51016148029538
H        17.49412682106678    1.54697126051993    2.01789192853793
C        16.81894222847437    0.75825535033008    3.88358042683494
H        17.55981629034113    1.28718559987316    4.46417689897259
N        14.92684607035693   -0.44411316576207    6.75998126749569
N        15.41285386213353   -0.67713287020457    7.99105423636366
H        14.79757614289861   -0.91362685231189    8.75212233694753
C        11.71700997257593    3.60314797798476    8.01225559395178
C        11.28463423930783    3.81158767162343    6.71438246053324
H        10.71835655571694    4.63787111283854    6.34086072773641
C        11.75239737201320    2.72122518084461    5.96496914232195
C        11.54413673599730    4.40213289624657    9.21199159337094
C        11.69188754429780    3.84348481321008   10.48265784676051
H        11.91516734571833    2.79142551262229   10.59446460127374
C        11.52573557477044    4.62082675301741   11.61284798194400
H        11.63869645795122    4.17627183267248   12.59015841748837
C        11.21152444159021    5.96481985119137   11.49471184853619
H        11.08339340035737    6.56911187164707   12.37918371376414
C        11.05909548084897    6.52831515777117   10.23806841206240
H        10.81358489388263    7.57464525605596   10.14201608682387
C        11.22230790381782    5.75577973432450    9.10455083533207
H        11.11612994270861    6.20169246227392    8.12824417195771
C        11.61116060103524    2.53465963344763    4.52703232669930
C        12.67078968014599    2.03115317398225    3.77604699523917
H        13.58308433589347    1.73169192395295    4.27148558694744
C        12.56424922516986    1.94584001900076    2.40062915133874
H        13.39926973576933    1.57634223163544    1.82553683302746
C        11.39655117845298    2.33781616407408    1.76563315411650
H        11.31765137295492    2.27445602658748    0.69067764860765
C        10.33070044194704    2.81703746038047    2.50998638622716
H         9.41810242595334    3.11652310232520    2.01771690432865
C        10.43862058128580    2.92564944709533    3.88341389025786
H         9.61020263964305    3.30303629485663    4.46398174718766
N        12.42576931223473    1.88797138187388    6.75981235740051
N        12.38448884117211    2.42529968355787    7.99091677577139
H        12.89678112270554    2.01055849827146    8.75201485700764

