101
CSD_code = KUHLOP | q = 0 | S = 0 | Stoichiometry = C45H49CrO4PSi | MND = 9
Cr        5.50186036131345    5.18718366616550    3.86403883704380
C         6.26090428779977    6.76161444953835    3.40665044372487
O         6.81895947138989    7.69280479792860    2.99252206199303
C         7.27366690284233    4.92868856740615    4.11211321236103
O         8.43139652752808    4.81936587065922    4.15105553746072
P         5.22556157602773    5.90058233612835    6.09071486452775
C         4.31837421645237    7.47131170769073    6.37072644914530
C         4.00762939147960    8.27231262027350    5.28064057079330
H         4.29882284107973    7.94696457379458    4.29215190446253
C         3.35065499223380    9.47714774594529    5.46032738910363
H         3.10842591237172   10.08762753844298    4.60332164319642
C         3.00710223831144    9.89400661549755    6.73468994841148
H         2.49134703795074   10.83210555292517    6.87829634341772
C         3.33816896696034    9.11183197291622    7.83064463103602
H         3.08573545621360    9.44401405680322    8.82741024234971
C         3.99558679868486    7.90928121310135    7.65340325429178
H         4.26289822927155    7.30761910620778    8.51095671217081
C         6.68952348211315    6.34427339901666    7.11148405456150
C         6.81902537875162    6.06105850688068    8.46754195332753
H         6.05387924323553    5.50178308870414    8.98687629369784
C         7.93727867578069    6.48459103015129    9.16490958386580
H         8.02938235926544    6.25305364682089   10.21641318423801
C         8.93181096516008    7.20156921998014    8.52306398726939
H         9.80355591121965    7.52741581756938    9.07096206895563
C         8.80267793350390    7.50024267524080    7.17626105572285
H         9.57294321929950    8.06191015198211    6.66968974910595
C         7.68874826179500    7.07650977849930    6.47618800604770
H         7.58432588952312    7.30412983702261    5.42557183410872
C         4.36337178717325    4.75841628210746    7.22429935287041
C         3.04913791711581    4.92373647235596    7.64487333709135
H         2.48995292979508    5.79586672360681    7.33706005340298
C         2.46263959063321    3.98155739771529    8.47262642902756
H         1.44836902436355    4.12943213328538    8.81657115500614
C         3.16884922976715    2.85587763667637    8.86370312579392
H         2.70582185969678    2.12336247351796    9.50874265885236
C         4.46986436977759    2.67034068773148    8.42306166261066
H         5.02225814156576    1.79145604816059    8.72307813799714
C         5.06262968647238    3.61631389326654    7.60960705805693
H         6.08524334137768    3.49890489598515    7.27597019072275
C         4.70571288222926    4.97840879474756    1.82838386833298
O         5.02108332174423    5.59702981501358    0.62222437447148
C         4.06558203830816    5.36926263316688   -0.39610895336555
H         3.90752554716025    4.29789205732633   -0.56127932629377
H         4.47285669781099    5.81967826301284   -1.29926185457534
H         3.10180413886898    5.83447747426313   -0.16079947423171
C         5.42532683542084    3.80083251220401    2.15473039069218
C         6.55506721039471    3.38114944259707    1.24510510366014
H         7.39020514877439    3.01796533565228    1.84747182106945
H         6.90394200343205    4.26462072737364    0.70754433120893
C         6.14848082129518    2.30998646574281    0.22722579458686
H         7.01756020325268    1.99750610383088   -0.34707864217135
H         5.40892034451708    2.69896071303075   -0.46850057559229
H         5.72454599817188    1.43380029941289    0.71389505072115
C         5.00387845154042    2.98543174871130    3.24260676010075
C         5.67222221341822    1.67545135200444    3.57521496593714
H         6.41443430890852    1.42120872995141    2.82195264782415
H         4.91387958067853    0.88870716992436    3.58411156216096
C         6.34965555908853    1.70515645434214    4.94417117418846
H         6.87257015144822    0.76749853818237    5.12031266178958
H         5.60592314160975    1.84010792081696    5.72306948281247
H         7.06701911804887    2.52263035536949    4.99081665384082
C         3.90345155232115    3.38922849659663    3.99325577237070
O         3.37152952398172    2.54632356844876    4.93475482934709
Si        2.22302045753110    1.37313386047253    4.89154923274971
C         0.83312853819088    1.86671879089971    6.09752171465853
H         0.15573530723074    2.61318959239332    5.69412599227658
H         1.25339641207348    2.26442179371661    7.01553361530792
H         0.23912136761345    0.99807949255671    6.36098164131033
C         3.06083182745030   -0.18693571768397    5.59557662177716
H         3.71105960217576   -0.69211704808165    4.88854168821651
H         2.31324350661385   -0.90318397000390    5.91798657473644
H         3.66081844824873    0.07107999849156    6.46260884834371
C         1.45355886784605    1.05297270030383    3.14103754287306
C         0.74404113487253    2.30601881575303    2.61688623785972
H        -0.04320735088114    2.62668557070042    3.29475441268794
H         0.29063391053393    2.10411538038340    1.64618303184109
H         1.44322774071191    3.13101888392998    2.49528153349611
C         2.51098774660027    0.64981676066744    2.10879018285653
H         3.22670277381606    1.45421142694086    1.95119371494362
H         2.03713352356840    0.43206925995565    1.15119923945016
H         3.04951243786047   -0.24150145478146    2.42410702292516
C         0.42532613830096   -0.07856515572707    3.23903708007934
H        -0.36726633602100    0.17899339046279    3.93651374657727
H         0.89506166574948   -0.99805329948912    3.57915561773769
H        -0.02620793355809   -0.26631236918311    2.26539474988669
C         3.23584564037289    4.63557926590170    3.74292690951298
C         2.09425582678024    4.98622142097928    4.51365656550991
H         1.80245670930209    4.31833357188886    5.30803026475401
C         1.37767961053110    6.10411356588849    4.24153705010640
H         0.49445340355899    6.34567926237617    4.81461223471743
C         1.79575746301186    7.00759259153541    3.22975244694207
C         1.10587542362595    8.21366619866457    3.02840355636143
H         0.22076284503287    8.40304758806601    3.61929054975718
C         1.55407939348486    9.14431515839611    2.12769509814912
H         1.01711447317977   10.07036298934474    1.98233802968797
C         2.73342318797069    8.90132240283524    1.42257869721529
H         3.12267562472299    9.65330939862623    0.75240499123170
C         3.41348669425265    7.71852443331018    1.58142523966494
H         4.34603458155473    7.57972260531674    1.06014107818683
C         2.94899053891736    6.71730118812793    2.45410253636362
C         3.63078759930387    5.45417249617710    2.64550731257484

