80
CSD_code = KUHMEG | q = 0 | S = 0 | Stoichiometry = C30H43CrO4PSi | MND = 9
Cr        0.17206735544758    6.86104653902105    5.72788115937647
C         0.26143022962525    8.77823296932748    6.82948518278423
H        -0.41262712988192    9.62648583678148    6.87096204839925
C         0.16093890526714    7.75565720334939    7.77723724490881
H        -0.59143995825614    7.79975664770883    8.55543616708467
C         1.10313067570769    6.70974094089379    7.75956661379715
H         1.05181203929845    5.92992687096843    8.51078467654481
C         2.10506185703244    6.67638050244264    6.79815283760642
H         2.81806993232128    5.86709093242397    6.82690338542570
C         4.50709205777023    6.95733207511462    4.91857329873588
C         5.43178297207105    6.96885942612213    3.88628682854667
C         5.27885520022392    7.85850485250384    2.80673287862185
C         4.24971888890633    8.78222565490287    2.84751123629073
C         2.39947618244067    9.88167732622090    4.01760236810705
H         2.47333025323371   10.68661721940133    3.30645050231759
C         1.46632335966802    9.90338599142897    5.00002244274735
H         0.77727629872929   10.73138375552250    5.09080858248589
C         2.30225897959892    7.76116084222903    5.88085773575235
C         3.38886614045309    7.82736000631437    4.93665108958449
C         3.33914960617408    8.82409221409400    3.92465743400659
C         1.34704792105550    8.82075038662925    5.90959896017100
P         0.92140937068057    5.35811535657124    4.07937858204821
C        -0.36921104342185    4.25094715972379    3.38426778107962
H         0.03785766149043    3.60138702293413    2.60912612043991
H        -1.16642841866706    4.86756258858993    2.97284925919458
H        -0.78464790107618    3.64980442798558    4.19028267549062
C         1.61633588803964    6.01047028666872    2.50333250755062
H         2.51810437472302    6.58411530798900    2.70341848445091
H         0.87469384860189    6.66397013550108    2.04826383387379
H         1.84927826149587    5.19325967805694    1.82105630516840
C         2.20268734877311    4.11000355486100    4.50703359466478
H         1.84998107702053    3.53428132801377    5.36089079736657
H         3.12841585438456    4.61268889414425    4.77609100762155
H         2.38359337631183    3.44004119064850    3.66676058737918
C        -1.09252304469467    7.40763487256592    4.55109291282860
O        -1.96847825608140    7.72091468800376    3.85371570102606
C        -1.22797675869329    5.76596973162470    6.05716597339076
O        -2.18597416845563    5.13605349553341    6.25041927546594
O         4.73828255487334    6.06902455734282    5.97181941729651
C         5.31202384830111    6.69534323347140    7.10087241972796
H         6.26890086352112    7.16533890790261    6.84974855761209
H         5.47435524045127    5.91087042585357    7.83880854469506
H         4.64729489553027    7.45880062130439    7.51979986543654
C         6.55630298475890    5.96629277426042    3.91015716445830
H         7.44275953737632    6.37613713194187    3.42831535774985
H         6.81474515856823    5.73017627636491    4.94253942280798
C         6.13870806282607    4.66850050548132    3.21430010501969
H         5.31800116685642    4.20513051001021    3.75554284712367
H         6.97260852181115    3.97054003224593    3.18599982502753
H         5.81108296910142    4.86181654516120    2.19522423269186
C         6.25505726140443    7.91048073600016    1.66331278596988
H         6.68691993165868    6.92941442858607    1.47179343730356
H         5.72634294444158    8.22894252159394    0.76584760269372
C         7.36677073703061    8.92192569924628    1.95319376175538
H         6.93691180484819    9.90739102621523    2.11487590117063
H         8.05829257004532    8.97636182173875    1.11529103137013
H         7.92351939500116    8.64462999917880    2.84605998623555
O         4.10475164858085    9.67808813389125    1.83325183186085
Si        3.09384995166777    9.70096369638212    0.53644546124117
C         3.30196074748525    8.12397427194825   -0.52435104187043
H         4.23505412298267    8.11486860252846   -1.07980267761790
H         2.49802209051538    8.02845728611060   -1.24647454260634
H         3.28515818060487    7.23500169301185    0.10042711850670
C         1.24193905554189    9.79357677315994    0.99016374146940
H         0.98408333682792    9.08791801384334    1.77499836903493
H         0.62016115413098    9.56534810293929    0.13037262165770
H         0.95180936343353   10.77920399106378    1.34104352555782
C         3.68730595996318   11.28872466434883   -0.36700091747470
C         2.83030169915675   11.51157793107669   -1.61267185433862
H         3.15003068843093   12.40955013204699   -2.14050310456822
H         1.78316232160321   11.62917089974494   -1.34575013122523
H         2.91489436632035   10.66860321390664   -2.29416390577152
C         5.15165232404690   11.16555488494177   -0.79496245198691
H         5.28441528081249   10.34337043081824   -1.49445410510109
H         5.78856041067358   10.99104810261321    0.06805149288165
H         5.48195736316876   12.08156664116885   -1.28443826602165
C         3.55387091670408   12.50902997280966    0.54750364479383
H         4.14305880743823   12.37382468956891    1.45130551837519
H         2.51655355206566   12.67013946117597    0.83218019664121
H         3.90752697204100   13.40593274415854    0.03941913810470

