53
CSD_code = KUHSUC | q = 0 | S = 0 | Stoichiometry = C20H25O6PW | MND = 6
C        -1.58863261006305    8.25459130079692    9.59665654102147
H        -1.95911492458936    8.79348411313638   10.46585313287900
C        -2.51076959168607    7.12487853566672    9.16790603248306
C        -1.76617292301112    6.09002648988211    8.32982855211064
H        -0.93982156336101    5.66794199090549    8.89692229518813
H        -1.36707932909363    6.54347306978295    7.42360577016115
H        -2.44036896517963    5.28552937874375    8.04576050667712
C        -3.66168346264931    7.73673385134853    8.36340029905108
H        -3.27786877397502    8.23979014937468    7.47701647518694
H        -4.20606559761216    8.46288939728424    8.96458601872883
H        -4.35624776576746    6.96228853570583    8.04872012869476
C        -3.06035992845248    6.45092807407413   10.43166958500017
H        -3.71674218748759    5.62792408301492   10.16061452853319
H        -3.62820009211471    7.15741277091244   11.03386572948363
H        -2.24463968645348    6.05823468482785   11.03384844462622
C        -0.13427279757139   10.78556170351664    9.35717737804446
C         1.33876626687428   11.03748689590700    9.15799230047113
C         1.49653199814830   12.06098553025882    8.29307637022055
C         0.18403269771814   12.53929738867720    7.86186550269257
C        -0.77747363010537   11.81038851932392    8.46387545025310
C        -0.55306811384054   10.87724588110823   10.81938902197765
H        -0.14533509018295   11.79434440635982   11.24226540514940
H        -0.16044549868522   10.03418442031868   11.38590229165020
H        -1.63593919490959   10.91314153217329   10.91996365161317
C         2.36063728988387   10.25384119321990    9.90587038564765
H         2.09407103272691    9.19598145525956    9.91123606103129
H         2.41874748078213   10.59092288118850   10.94239556761058
H         3.34550473665860   10.36231083951875    9.45893380918289
C         2.76072325052030   12.70171198746112    7.83313610237111
H         2.81692323419415   12.69582059525149    6.74508701622114
H         3.63104230262346   12.18666094751748    8.22890656726970
H         2.79280105578302   13.74008349330336    8.16283983093556
C         0.02434775869601   13.70154865994921    6.94374322148251
H         0.62728445197460   13.56771045838110    6.04710969284756
H         0.36093484276568   14.61287666183507    7.43849753005550
H        -1.01339653119293   13.83277151380445    6.65113130402085
C        -2.25966844336131   11.91503879748107    8.35337636656720
H        -2.54892403082614   12.38154500825772    7.41480999815356
H        -2.67023651486979   12.51443203911606    9.16819507259324
H        -2.71035512980016   10.92142577175970    8.40010988800871
C         1.02440712807155    8.66042894110601    4.35114509972173
C        -1.36859860823237    8.07481939438836    5.49195206068014
C         1.09538395032219    7.07177570653422    6.66449984331608
C         2.13454048722930    9.58169000107159    6.67652751413203
C        -0.46610520589708   10.60283429259554    5.61819517304939
O        -0.16887489281200    8.01368191690782    9.67477540623750
O         1.42602439252844    8.54860106203595    3.28561899556995
O        -2.28398058564443    7.65425898474505    4.94930820663575
O         1.56925261907565    6.05929310657625    6.89234004988192
O         3.23955949264351    9.84703300829895    6.77979101839902
O        -0.97598476961656   11.49434758577020    5.11778652978342
P        -0.46082062320410    9.13782471345822    8.52892371779817
W         0.33013059303120    8.85746628010790    6.18919655890312

