55
CSD_code = KUHSAJ | q = 0 | S = 0 | Stoichiometry = C24H20FeN8Se2 | MND = 6
Fe        4.41527738478038    6.01335473594733    3.31590444024651
Se        1.44920611971649    9.40982398959936    2.39714159145104
Se        6.95570484390150    2.26669632975341    4.15545802310294
C         2.90533939416958    4.17489576978781    1.63314457353136
H         3.18696125619671    3.53102767534867    2.45308720234084
C         2.08701203200449    3.69425722782767    0.62974962847660
C         1.76548445446613    4.57445053578997   -0.40639307180512
H         1.09883226296247    4.26718968457705   -1.19779934123702
C         2.33631908657994    5.82445612965770   -0.41815512757334
H         2.13931556592909    6.51569556155607   -1.22312337818856
C         3.19202353174850    6.20749064465078    0.62656065133891
C         4.85673723270118    7.98087292603003    1.21356960317187
C         5.37424470367063    9.18789814250741    0.73515426904123
H         4.95747203120687    9.63101017820510   -0.15575225584322
C         6.39788198553458    9.80968065835721    1.42296437359863
H         6.80564381008160   10.74415915116215    1.07184265712495
C         6.86440181265059    9.22326408690620    2.58662215506587
H         7.62597666937123    9.70494465746861    3.17609987381044
C         6.30332424143650    8.02469399351371    3.01052372081569
C         6.64848903329611    7.36548690495338    4.25815145269334
C         7.83131248917348    7.59079730216345    4.95191442751261
H         8.54330294940987    8.31352880529875    4.59108651417858
C         8.09977363185793    6.84164704169395    6.08426224942499
H         9.01253668614314    6.98576315495282    6.64004514786437
C         7.18643939061525    5.88071486143316    6.47163831300500
H         7.37547982429032    5.25086648454739    7.32681528655397
C         6.01326534990329    5.70767349256327    5.73188473523224
C         3.88802527262983    4.38707294409432    5.73328212112352
C         3.17182605559756    3.48295035851012    6.53344823266032
H         3.65784150441991    3.02362280400293    7.38044056282856
C         1.86185830166787    3.19790177738301    6.23203250559471
H         1.29945349615624    2.49856696899429    6.83186914055696
C         1.25814910385379    3.85174453269612    5.15488151806405
C         2.05417927242472    4.69289447340241    4.40256278388491
H         1.63288725353294    5.22539762410510    3.56280498381249
C         1.54570785610727    2.30108496600399    0.66665820546359
H         2.05298382986672    1.71161198813155    1.42512305371537
H         1.67208335798494    1.81743504859825   -0.29985939029783
H         0.47995548058118    2.31771728978675    0.89440779118724
C        -0.18172147475218    3.63107077729413    4.81832112260816
H        -0.49626379010092    4.29540087041662    4.01852123786359
H        -0.80709787117905    3.81115949527547    5.69084129175568
H        -0.34136407926661    2.60082586465306    4.50156250236299
C         2.45110457354778    8.22097961996258    3.14456293916287
C         6.14375837033342    3.61330894397115    3.44585398412409
N         3.41051299461923    5.41380873222059    1.67852715390623
N         3.82073264826827    7.42132807797091    0.50608939279658
H         3.47973699752498    7.99585309471416   -0.25295037767072
N         5.33135588295154    7.38683446999715    2.31511417259428
N         5.72750855293957    6.45709416911928    4.66029964051767
N         5.15431186140197    4.71856255881003    6.14524611292032
H         5.50866113306364    4.15333349836971    6.90512271455286
N         3.35189796202290    4.92576095053262    4.63496622114935
N         3.14055047475351    7.40187541461363    3.61597761510197
N         5.57420720525035    4.53186256011842    2.99829505272497

