56
CSD_code = KUHTUD | q = 0 | S = 0 | Stoichiometry = C17H29O6PSi2W | MND = 6
C        -1.54403714335711    3.52425414958922    4.82537331466080
H        -2.13219128988526    4.43871468274965    4.89383479640833
C        -2.17654902946033    2.35013727183030    5.55175695483332
C        -2.40487977175303    2.77955326023914    7.00690363331821
H        -1.46061839806586    3.07099399548551    7.46035614359885
H        -2.82772415839901    1.95897164321684    7.58132020982772
H        -3.08889728726356    3.62421703973854    7.05631009544064
C        -1.26574281810888    1.12696033648163    5.51724213876020
H        -1.09344507092487    0.80759918890622    4.48925259924840
H        -1.72280778614003    0.30359908924712    6.06140427880413
H        -0.30926783922857    1.35757672191369    5.98006831277353
C        -3.51703204947907    2.01846638735781    4.89182477191558
H        -4.14485929015861    2.90406393870083    4.81787874470534
H        -4.04515142902009    1.27097197846626    5.47853064678611
H        -3.36156260370320    1.61776939617633    3.89238242155879
C        -0.50971399055288    5.15788823122704    2.70683918975870
H         0.25743322680418    5.11839480990726    1.92466368091875
C        -0.97210270149882    6.86774607476436    5.43210284214410
H        -0.82226404231232    6.07838789542572    6.16070715163109
H        -2.03426123637898    6.93926035903894    5.22118085533546
H        -0.67326264333797    7.80158189508387    5.89940296174514
C         0.02640547907042    8.17948892023552    2.82633663801064
H        -0.98860038303361    8.47298748503333    2.58209973881603
H         0.57327137634003    8.07262158223173    1.89592763395909
H         0.47845499187368    8.99641999764750    3.37752406507323
C         1.88231454763454    6.20384867524565    4.34875891498428
H         2.26557154727302    6.93194742089933    5.05738205434051
H         2.53825319930697    6.21581326898336    3.48269180369480
H         1.95988363244892    5.22280317480617    4.80894922431129
C        -1.83848436767522    6.25963339914220    0.13258113904840
H        -2.74745725929373    6.35146024159221   -0.45285950193008
H        -1.09930561772563    5.76371623533370   -0.48901012732391
H        -1.47772435555172    7.26184556187344    0.33678810025031
C        -3.53231070526371    6.14661615707436    2.75119815603673
H        -3.23133426129359    7.14156250376251    3.06111421945512
H        -3.80617570755010    5.58691046007886    3.63984645508464
H        -4.42820381006550    6.25160912920899    2.14782438187000
C        -2.75965520281179    3.52938138004357    1.28492683188771
H        -3.70138439813056    3.55314326918734    0.74495162170997
H        -2.90769744968218    2.92516292011616    2.17518533947089
H        -2.03828028724531    3.01399600953719    0.65682870968274
C         2.17135968835543    0.66810388966098    1.18976999836866
C         1.58806721271210    0.93214209365202    3.89810461480204
C         0.60442896406848    2.84512726229001    0.53298259213698
C         2.56929992337193    3.11236510082374    2.48566543217527
C        -0.52743177860535    0.64817039076076    1.92161270706246
O        -0.14524430672555    3.77984312307599    5.08547826901950
O         2.85134360937657   -0.02265612543433    0.58273456184016
O         2.03050975125231    0.38721841649973    4.79747619477448
O         0.48077055801642    3.38588929143766   -0.46897937938721
O         3.48830254871990    3.78531307029753    2.57168885815267
O        -1.39204584011798   -0.06633647422261    1.69780354879243
P        -0.36764427663420    3.51276474142906    3.48778879806983
Si        0.07876355603432    6.58093088751067    3.86458563576762
Si       -2.16615198173438    5.28416413743866    1.73556419777087
W         1.01226875550845    1.88568405720465    2.23354282805004

