44
CSD_code = KUHTIR | q = 0 | S = 0 | Stoichiometry = C17H19O6PW | MND = 6
W         1.88601535966663    5.77409330950116    2.85439075065592
P         2.83843431194179    7.98847094231472    3.36148707416987
O         0.57696547931654    3.02038581705384    2.18619277650464
O         4.41044270023024    4.08902698834440    3.62807258235747
O         0.47128065577789    5.59307234179061    5.65125178432744
O        -0.69862330604717    7.20231739248367    1.78644794795747
O         3.17841423200733    5.68029665045803   -0.00309771218439
O         1.89508568562696    9.29276411238336    3.10392488317295
C         1.05795997679196    4.02725330586244    2.43509764998239
C         3.51939255370930    4.77527383358488    3.43335654874487
C         1.03348119846210    5.69885479538649    4.66487289166325
C         0.24599231089404    6.70457377792217    2.18673402219594
C         2.70572984765395    5.76341282707819    1.03447797375228
C         3.02346464328712    9.33396021866248    2.19858728234387
H         3.70373468525236   10.14998272745909    2.42564994483582
C         2.69293696858673    9.16254697898070    0.74300840061549
H         2.01699154105532    8.31811817593174    0.60792819639368
H         3.60204565218805    8.98943255956832    0.17045663428295
H         2.20381285056952   10.05739220841969    0.35972846151200
C         3.85737753563756    8.38571926173598    4.87706592288218
C         2.99571663855385    7.84768271974874    5.98998196951296
C         3.54835393610479    6.70786817805483    6.45686608251692
C         4.79012947752126    6.43846848456036    5.73643092085093
C         4.99193255835607    7.40311415075350    4.81462970333667
C         4.24850850491436    9.84761056332078    5.01971842883344
H         3.37935540845051   10.49136738219197    4.89308073860126
H         5.01163311195230   10.12300621884895    4.29469463992993
H         4.65411908524618   10.00826927658808    6.01734874954610
C         1.76508013953931    8.56406321278572    6.42500254280178
H         1.13128104791886    7.92507156861098    7.03414818718541
H         1.19457292764494    8.89397454663395    5.55513469629001
H         2.02401272488547    9.44762042006702    7.01101894590428
C         3.06103330904602    5.82162291827385    7.55127259697154
H         2.11692898984964    6.17560504207329    7.95452929231713
H         3.79244487425581    5.78536246340637    8.35817166814451
H         2.92175578995114    4.80605589750117    7.18115865698875
C         5.67960536329263    5.29405670961889    6.08077542040453
H         6.46317923525427    5.16740761770528    5.33910942653688
H         5.11038210963788    4.36933591297352    6.15114165353901
H         6.14855277604894    5.47098379462725    7.04923151757651
C         6.10204188350540    7.56513813808129    3.83467354904368
H         6.84849684489653    8.27121637073597    4.20289386838580
H         5.71289031917672    7.94311278792895    2.88659914478145
H         6.59855806138451    6.61593739999226    3.64885358381894

