46
CSD_code = KUHXAN | q = 0 | S = 0 | Stoichiometry = C19H18Cl3N4ORe | MND = 6
Re        2.47539952094869   14.86129923714320    2.58378297199871
Cl        1.63731807142263   16.91270283141415    2.01377995364802
Cl        1.00287680057490   14.85094740253578    4.45473591287374
Cl        3.33925836370169   14.68867996067180    0.41483452505436
O         7.81800484405682   17.46763468346195    6.67393225036985
N         0.74483649002057   13.88000015117236    1.69743925863614
N         2.81792705095141   12.85725220011746    2.91299463570488
N         7.30743520496276   10.89658065869838    5.55723216155198
N         3.88319939265014   15.42629876623080    3.46835464074003
C        -0.28192529411477   14.45392008644131    1.08748170502197
C        -1.37130493509650   13.73706591516821    0.62576750375495
C        -1.39430243989525   12.35731065776538    0.80464593956097
C        -0.33035946093477   11.74999797229475    1.43527411957349
C         0.73536528642542   12.54180208920107    1.88004469347720
C         1.88429045938328   12.02387421621473    2.55201371884197
C         3.93532050312739   12.35848928810133    3.59285787553026
C         3.80260479913611   11.44762400090139    4.64142565871559
C         4.91521444698034   10.98924838532448    5.31125194595977
C         6.19639963059007   11.40810645042547    4.94017356192203
C         6.32300237621861   12.31487561263950    3.88142326144186
C         5.21200757273411   12.78776885767522    3.22370508279807
C         4.84562687482333   15.87977372339248    4.25342133491940
C         6.13058900531018   16.19389691313367    3.75685920929496
C         7.08474958416770   16.70905723618354    4.59326608923959
C         6.80805076918526   16.93913621102864    5.94933965370808
C         5.54389994917522   16.61835458627956    6.45178608122050
C         4.58174272396766   16.09264211558738    5.62242394136216
C         7.58633590327324   17.81489206821353    8.02086995147512
H         5.31075162393037   13.47044613996489    2.39292288610658
H         2.81807675775684   11.13957251024542    4.96035838973439
H         8.06650476719209   16.96538607096681    4.22728709148165
H         1.97591995346208   10.95907383592962    2.73208517580377
H        -0.22374047508885   15.52959952017086    0.97186818008999
H         3.59761191961156   15.84702769897101    5.98998993656735
H         4.80126935446324   10.29986246427185    6.13498581426529
H         5.30321953881142   16.78248163628168    7.49012024642642
H         6.78175967019976   18.55059770169349    8.10972027086999
H         8.17746408645986   11.38464017773574    5.42980369924270
H         6.32956864277163   16.03900014533441    2.70839245578792
H        -0.30140544990883   10.68400490908303    1.59767032729091
H        -2.18397238997462   14.25029033025496    0.13856068478155
H        -2.23290192269349   11.77349272556403    0.45611167490300
H         7.30740346144729   12.64136853976265    3.58109234796116
H         7.18394473155375   10.43802775499273    6.44370244619154
H         8.51745750436039   18.25410176281775    8.37489129172571
H         7.34720473190256   16.93629379853935    8.62741944235534

