69
CSD_code = KUHZOC | q = 1 | S = 0 | Stoichiometry = C32H31FeN2OP2(1+) | MND = 8
Fe        9.31295046411090    6.45981747080244   25.13001507992433
P        10.32039644602135    6.20288564163672   23.22365030158649
P         9.27125434425024    8.46547937541247   24.23834578742472
N        10.16395724158991    7.87926039596883   22.84954784778810
N        10.58923459304644    8.41141985612175   21.62436099355442
O        11.66757636070657    7.09780287207274   26.65668145297292
C        10.77682181532122    6.88500825404942   25.97501351635994
C         7.44374199106643    5.43207096372416   24.87273598400557
C         7.30973071165968    6.33153692672187   25.95995912543101
C         8.25124459536807    5.97314431656434   26.94825757423914
C         8.95310128382056    4.82524526742477   26.48692990085457
C         8.44856301783318    4.48872006789091   25.21387968574370
C         9.51729508439430    8.76723776364896   20.71011506981777
C        11.55807233307631    9.48021654980653   21.76417144092093
C         9.51935124078156    5.30493593701886   21.86679625537823
C        10.14006205630378    4.22456577601857   21.24889771044841
C         9.46928794584495    3.52037274738147   20.26364521666451
C         8.18130579003352    3.88005993936734   19.90244656190306
C         7.55183199699894    4.94349277538440   20.53314798432856
C         8.21400689234035    5.64613726501188   21.52066502686818
C        12.07757264042493    5.81282066047021   23.05724469503274
C        12.71627918730038    5.15313003691801   24.10197189935618
C        14.06482262213965    4.85930307312882   24.00641850017466
C        14.77226367834013    5.22661328014183   22.87243604022747
C        14.13286177248889    5.87650908743579   21.82667747403985
C        12.78322180816966    6.16607319450710   21.90876631439195
C         7.85038668125579    9.38704570760292   23.57081810494237
C         6.64239657693067    8.72613360703497   23.37892909094390
C         5.56580983109218    9.39031031465780   22.81809192167763
C         5.69036343288682   10.71911960128523   22.44794510530220
C         6.89275981538514   11.38367236061379   22.63892178049462
C         7.97176225310729   10.72517065394146   23.19806897045355
C        10.26151855991186    9.73089119542093   25.07929605947668
C         9.62113962620663   10.67918530872704   25.87492271608192
C        10.36829780219648   11.57027533989130   26.62324275336617
C        11.75260333410338   11.51084035457860   26.59577470530779
C        12.39274903189484   10.54584457755131   25.83325398090017
C        11.65133358135147    9.64841972769045   25.08886759762264
H         6.77153280555609    5.33615582592245   24.03694517032842
H         6.56869556773338    7.10751008949394   26.05859462412604
H         8.33815680740178    6.41346343025687   27.92714086160263
H         9.66387049447533    4.25205487182122   27.05846080307769
H         8.71748214874271    3.62151006373132   24.63349057300374
H         9.95483170842448    8.91083082075766   19.72344973416255
H         8.99461386181959    9.68456131101847   21.00210298713400
H         8.80544616820303    7.94797443579444   20.65353411042700
H        11.88411305340686    9.77638122062984   20.76928065359622
H        12.42075389541994    9.11326917670402   22.31671969602372
H        11.14416198573833   10.35797860013550   22.27710315071013
H        11.14265168051896    3.94122611240016   21.53554457835868
H         9.95330088105746    2.68655216748957   19.77876138169688
H         7.66307621627166    3.32855050985131   19.13343746043361
H         6.54507923811260    5.21784590231901   20.25548316836426
H         7.73067240167961    6.47164664705410   22.02761423065794
H        12.14360614570593    4.87238497057779   24.97581676970086
H        14.56431956307880    4.34657349803604   24.81396881070291
H        15.82527772773568    5.00185993571148   22.80063093420038
H        14.68827727122890    6.15323416459862   20.94341226705806
H        12.26706629846624    6.66440319342953   21.10071632909795
H         6.54844179311228    7.69398593479052   23.68198309399127
H         4.62891855698239    8.87372939195058   22.67460408121132
H         4.85097281394261   11.23973939049409   22.01411147082626
H         6.98957103405635   12.41953011559654   22.35145292193798
H         8.90774640322070   11.24586092585656   23.34582907366959
H         8.54047765484905   10.71543827754227   25.90195303020280
H         9.87018200939722   12.30901268248265   27.23222458341112
H        12.33328823000448   12.20909010927743   27.17821011619214
H        13.47032198706664   10.48730404566996   25.82709491663090
H        12.14336515682624    8.87567393498517   24.51291819146130

