44
CSD_code = KUJBOH | q = 0 | S = 0 | Stoichiometry = C16H18MoN4O4S | MND = 6
H         2.50351837558546    6.89637796657128    6.29458929700522
C         4.08120216482715   10.04181142474503    2.26450033665423
H         4.89249024235957    9.33577173030341    2.07917694763743
C         2.90272765601435    8.30760899711289    4.94212897420214
C         4.23020779247655    6.26616447675852    5.25130652319356
H         3.80802887458785    5.44298179052144    4.66841744971574
H         4.71474588738194    5.86104700012944    6.13925298739031
H         4.95905190883519    6.79224133279216    4.64110538318655
C         3.92865438877475   11.11430266465171    1.33265345656120
C         2.88049114692938   12.04749974299136    1.46702611733693
C         2.75253324323500   13.09633154557121    0.51618238139018
C         3.64468169402669   13.18293247586010   -0.53457468995856
H         3.55580949916119   13.96740890554789   -1.26922960108391
C         4.67719700211667   12.25208623955484   -0.65937253272655
H         5.36201163021574   12.33842998081618   -1.48881346883191
C         4.82266545095265   11.23920791763969    0.25342049163815
H         5.62146919767118   10.52031256279042    0.15140380281857
C         1.43644513085323   14.94247913887201   -0.19364629548005
H         2.25901292613960   15.66181492359246   -0.27310878990806
H         0.54525613369559   15.45256153712904    0.16786177857556
H         1.23279550955583   14.51278067704893   -1.17947466402965
C         3.51940967750706   11.72156555360945    5.93249017755350
H         3.89506925374127   10.70534554168841    5.89092605715606
C         3.99503065302134   12.59784369828892    6.88912707329176
H         4.74282345082220   12.27098542756583    7.59533110398877
C         3.49461948883244   13.89684750131171    6.93906111409244
C         2.53809342133288   14.23812100715683    5.98947221623722
H         2.11191061120275   15.22952706761637    5.97257165178293
C         2.12123667336802   13.29706040744002    5.06401659165199
H         1.36771290480590   13.53351152868269    4.32232720024122
C         3.96592422591888   14.86381316701238    7.97368412240222
H         3.67092320436095   14.51768064220433    8.96369822246768
H         3.54257703720046   15.85082629511308    7.80962264082785
H         5.05233414569208   14.93559480653106    7.95983437329325
N         3.33054637147305    9.81437921114988    3.29580894709695
N         3.68170341877339    8.70150527475892    3.98661876594633
N         3.21453598130170    7.20803745784064    5.65058091828562
N         2.59509258318877   12.05481123958817    5.03444560416553
O         0.82392080514412    9.45174811204348    2.52839661176442
O         0.02629658845494   11.41022310373612    4.28466072045873
O         2.03312676746227   11.97310495620979    2.46150002618586
O         1.71409657879631   13.94378236319564    0.75661971562579
S         1.46741273754108    9.16426085183600    5.47720163651083
Mo        1.28980756465546   10.66177175441683    3.54369862368386

