102
CSD_code = KUJGEB | q = 0 | S = 0 | Stoichiometry = C33H57O9P2Re | MND = 6
Re        2.21222129806413    4.47645481809732    0.70149207443743
C         1.95326317739175    5.03433035330252    2.53839003149917
O         1.83649192376641    5.42193182647286    3.62064617599639
C         1.66141617475038    2.70110813327444    1.19282721790443
O         1.28752769604454    1.64144786961628    1.50311108825650
C         2.79475307781146    4.57992224203579   -1.42353102973477
C         3.35249291004084    3.87517968273808   -2.42975214391621
C         3.31145360192985    2.43640275624188   -2.62045366960532
C         3.50213142434159    1.91970420122108   -3.90581171093150
C         3.45167252509263    0.56006936456749   -4.14030535090155
C         3.22772541822156   -0.31943374030413   -3.09300904767831
C         3.06119140772380    0.17562633514600   -1.80931408153670
C         3.10386291037344    1.53544990058902   -1.57603128676326
C         2.90104375029956    6.01690206129669   -1.33022408521322
O         2.81545446829684    6.46272492552886   -0.16832223904698
C         3.06372049774099    7.02609755007641   -2.46572550264303
C         2.26213719505228    6.63274198301202   -3.70745539972798
C         4.56385523895129    7.12359155275573   -2.78249595586971
C         2.57337324982764    8.39129230374481   -1.96953364274205
P         0.04465854193103    5.07296117125254   -0.10169038870824
O        -0.79581503022044    3.94968028777695   -0.90206235084011
C        -0.21446792682089    2.88595871455803   -1.65948594559332
C        -0.23605620226316    3.24100897051140   -3.14008339153135
C        -0.99592709982389    1.61410893909086   -1.35916626475165
O        -1.07427337031798    5.46827355618184    0.97071437402643
C        -1.37760518170874    4.62736437045634    2.08818745674111
C        -2.61347098475323    3.79441832762657    1.77393193798645
C        -1.59627681103574    5.53052114692831    3.29533020867464
O        -0.04102402477122    6.36505035548233   -1.03837758548430
C        -1.32405874386592    6.93826889914528   -1.34848001521260
C        -1.52000999830420    8.19400728657497   -0.51049098408131
C        -1.37985064281961    7.24084556465305   -2.84005002457350
P         4.58630066378096    4.36715399007978    0.94084629928968
O         5.38349070394336    5.74442911354306    1.06230126882662
C         4.99756187210211    6.82710498984786    1.91460295634458
C         5.80726178478582    8.03599483227029    1.46056588669934
C         5.25243498764691    6.49544746029199    3.37712068302876
O         5.24297405939106    3.60925277058908    2.20864603718711
C         4.61623691496501    2.52492587884060    2.89081842760310
C         5.19738940907091    2.48390263470416    4.29893250527070
C         4.84970522600022    1.22063383814903    2.14096624151697
O         5.33522956848968    3.74606585839373   -0.31849517629903
C         6.74234163959446    3.48110368046745   -0.35634180084856
C         7.45002549808037    4.60606156127329   -1.10026466591530
C         6.92517960484550    2.14105072227876   -1.05816238571723
H         3.92338709928738    4.37574904337959   -3.21117480009607
H         3.67738978721739    2.59802805448878   -4.73119503913024
H         3.59230833980819    0.18179825225279   -5.14332158624383
H         3.19385924420901   -1.38347712602579   -3.27651136414702
H         2.89988744002367   -0.50222566011231   -0.98368929543814
H         3.00139037892117    1.92043544076026   -0.57285040336152
H         2.28730875544519    7.44429508355535   -4.43400024746257
H         1.22754712138007    6.44679284369881   -3.43171971267439
H         2.65437408212585    5.73938986842388   -4.18418426346751
H         4.73896469588613    7.93169760423468   -3.49164396876816
H         4.94532028581161    6.20105820710205   -3.21260451589610
H         5.13017361743037    7.32902333183998   -1.87522772197707
H         2.66278350229041    9.13723614088898   -2.75789575038382
H         3.15620300575069    8.71924024619393   -1.11115974773008
H         1.53259244340767    8.31833416252214   -1.66236665272339
H         0.82422995501534    2.75204741007332   -1.33770372643640
H         0.21199866226857    2.43611955948519   -3.71643201613979
H         0.33949894839095    4.14854276236678   -3.30578792274033
H        -1.25833970627018    3.40004573879105   -3.47713649858662
H        -0.57999542618488    0.78987606388876   -1.93127846279523
H        -2.04335340432172    1.74167968277565   -1.62302610767549
H        -0.91988136683475    1.37867101452537   -0.30104976304937
H        -0.51832765565067    3.96377792577583    2.26953649500250
H        -2.82675685387562    3.12393388504085    2.60142259082488
H        -2.44225353206491    3.21032354599434    0.87536320690115
H        -3.46883436841208    4.44644638136014    1.61211360994324
H        -1.83036971710942    4.92864557888891    4.16836028273622
H        -2.41790670634263    6.21617967194593    3.10212707070993
H        -0.69780557115763    6.10629919327257    3.49622512511816
H        -2.09864887665466    6.20495929370582   -1.09983333828722
H        -2.49257436873152    8.63248487732550   -0.71918543379883
H        -0.74513570698708    8.92186726273043   -0.74097985495116
H        -1.45808262763788    7.94090726657954    0.54386352909270
H        -2.35473556771498    7.65238344718025   -3.08914631422679
H        -1.22777300096259    6.33146274235463   -3.41643347660708
H        -0.61432660273672    7.96478069069019   -3.10930628170583
H         3.92912787984826    7.02541310258791    1.76698905618726
H         5.52664934487160    8.91065807806267    2.04072280987883
H         5.61954645956892    8.23800031822120    0.40874179720394
H         6.86960006410880    7.84380530492781    1.59417171128213
H         5.04593563321411    7.36772514043332    3.99212213076600
H         6.28839324562292    6.19413883436752    3.51459041952976
H         4.60584221703535    5.68164361822675    3.69280571168487
H         3.53454969662435    2.72474680747811    2.93436879980251
H         4.74617794535679    1.67013021571272    4.85852076039435
H         4.99950325217054    3.41907845468151    4.81480582238133
H         6.27310686603020    2.33283307779783    4.25192491058934
H         4.32903299309178    0.40920131289971    2.64093596909927
H         5.91322802309662    0.99446872083604    2.10104116382845
H         4.46500582590031    1.31400789767505    1.12876193149261
H         7.11804979907574    3.42478074670440    0.67233354455395
H         8.51928694754769    4.41357474413961   -1.13937259961847
H         7.27409988847377    5.55079699811387   -0.59415438744038
H         7.06350684325110    4.67457889947244   -2.11435138492421
H         7.98228356982732    1.90059519310475   -1.13465123209244
H         6.49395198287958    2.18874309497782   -2.05510760529554
H         6.41786281338922    1.35363090867437   -0.50808171878399

