70
CSD_code = KUJHAA | q = 0 | S = 0 | Stoichiometry = C33H28N4P2PdS2 | MND = 4
Pd        5.63892228756888    1.38427966382412   11.35319535758376
S         4.29036583070979    3.19232172177479   10.89816654028818
S         7.35974823575962    2.76001998153731   12.06480183569176
P         4.06784713743205   -0.22584818242283   11.28219625522284
P         6.84426071843129   -0.49654458058105   11.35695479335013
N         2.47682625333768    1.25259902798858   10.66521652235574
N         1.78585734361169    3.49556348503067   10.38158658312938
N         8.58962716752374    0.85407310384117   10.70147391050364
N         9.92099612006006    2.49475432328855   11.77130611069240
C         2.73370539959349    2.57911239906166   10.63231935141014
C         0.56230330749852    3.08816752204644   10.17368448256834
C         0.20596252854544    1.73690673504252   10.19540518980754
C         1.23282259327934    0.85333760445447   10.44885115591331
C         8.73026585671486    1.96107320575419   11.46774549695066
C         9.67988008382806    0.34711516434934   10.14417765488024
C        10.93333508594207    0.88168487090397   10.35489527757562
C        10.98993437503653    1.96317746845348   11.23761198442160
C         3.08146456047830   -0.15681599558481   12.81080686721659
C         3.55006014315883    0.78230584193454   13.73225691085973
C         2.90158406789909    0.94837737219712   14.94130423377027
C         1.78846053435971    0.17726491263405   15.23997924049461
C         1.32864036055666   -0.76032609827109   14.33093047669616
C         1.97147392042624   -0.93155950098361   13.11625549195163
C         3.41607209398240   -1.23336355927385    9.92565834961374
C         3.44056170194334   -0.66899610812973    8.65516916955462
C         3.07240717945497   -1.41912734344232    7.55495108808216
C         2.67090118347501   -2.73474451466747    7.72146742288356
C         2.64428236078963   -3.29986773002520    8.98632450153207
C         3.02710759746666   -2.55706573566962   10.08888796178407
C         5.36025334222744   -1.47422663003567   11.93004750672574
C         8.15514800242059   -1.24745488146385   12.36001823484904
C         8.22975172787449   -0.74030722475920   13.65466070690923
C         9.20385650946610   -1.19401777203505   14.52252263520029
C        10.10701358191703   -2.15616078196845   14.09788303025669
C        10.03367868297133   -2.66031290736448   12.80975448135144
C         9.06183531943858   -2.20720227201890   11.93423218147659
C         6.81148012481123   -1.00092692120024    9.61648941113967
C         6.84627039742978   -2.31837916196957    9.17896858094661
C         6.70471111177151   -2.59982355412932    7.83090084039705
C         6.51979884152656   -1.57260018138750    6.92103831203854
C         6.46621507198554   -0.25680005395106    7.35529617069643
C         6.60686735175131    0.03132062430155    8.70015906531067
H         3.75659673201694    0.36228321015515    8.54921061846584
H         3.09995840592542   -0.98179217286797    6.56789057584825
H         2.38164465262125   -3.32373896524049    6.86370558504454
H         2.33114705808276   -4.32638211192695    9.11212764031226
H         3.02487979820567   -3.00338237770574   11.07396601791211
H         4.43591659506107    1.39694070556007   13.48766470766527
H         3.25942695524231    1.68042112908403   15.65015216756512
H         1.27891852400869    0.30802992394203   16.18309612031292
H         0.46249931703369   -1.36169517540865   14.56686094014224
H         1.60430499727150   -1.66232128501661   12.41023723600675
H         5.35441003170426   -1.43555509960756   13.02874353693383
H         5.30044788294615   -2.52096923526116   11.61835000304335
H        11.93177675285363    2.41709205338499   11.51860571933616
H        11.81226155658053    0.47705717217564    9.88389544242572
H         9.52251420286929   -0.51638575303091    9.50763278294100
H         1.06963752574104   -0.21725287759311   10.47907667881025
H        -0.80264085310840    1.40290148166567   10.02461825089474
H        -0.16658956773786    3.86513797246296    9.98057288986585
H         6.97303676236241   -3.12333409819494    9.89029060859784
H         6.73362416707670   -3.62474653109418    7.49030471995404
H         6.41047190604087   -1.79864120892948    5.87058284662341
H         6.30928055510921    0.54054460348930    6.64341042623182
H         6.56742683747751    1.07394090382578    9.05994035587244
H         9.01608758379262   -2.59226684168799   10.92612556811703
H        10.74216473793315   -3.40749856974100   12.48189525201410
H        10.87421993915139   -2.50956572539353   14.77082885867285
H         9.26618668430729   -0.79535655645817   15.52432105691874
H         7.52263416482787    0.02785209221455   13.95644201914576

