50
CSD_code = KUJJAB | q = 0 | S = 0 | Stoichiometry = C23H21ClIN2PPd | MND = 4
C        12.75198808338326   16.54861334450370    2.73379485970171
C        13.55953851681361   18.53052237454577    2.14813948185877
H        14.07825055252403   19.24213214290036    1.53976839042174
C        12.89378148405351   18.69059806412267    3.31613119421664
H        12.73099863740134   19.56331864392200    3.91406723745685
C        14.01919700873887   16.60469263624317    0.62407902670104
H        13.87767943182741   15.51838610981702    0.68599546229294
H        15.08426300869823   16.82850365684797    0.54928864823927
H        13.50365384787921   16.97350118364259   -0.26478182530230
C        11.67523543186319   17.12091537217684    4.86061140271726
H        11.13298309537866   16.17379555776657    4.66012169211010
H        10.94410308715074   17.90545922305228    5.07409383134045
C        12.61803797268800   16.95161275590418    6.02809905463801
C        13.56147182701456   15.91940046668148    6.05775334651425
C        14.41196194602222   15.80358564737932    7.15608108229345
H        15.12549364516036   14.99121633669157    7.18482896951300
C        14.34768339252850   16.70386540430894    8.20193871313860
H        15.01743172594479   16.60305318297240    9.04264720630248
C        13.41802335997365   17.73002324704838    8.16818435687966
H        13.35662404013740   18.43532770559615    8.98287162532633
C        12.56198732383201   17.84783707367551    7.08785669264322
H        11.83129042096150   18.64406518506225    7.06977698906531
C        14.02025663789298   13.16318863674593    5.72820683128414
C        12.94976565387604   12.70686435978836    6.49375129011558
H        12.01458681044682   13.25500131287066    6.47600504313373
C        13.07773654260386   11.55330501942683    7.24034764628292
H        12.24496713441435   11.19342515940510    7.82603408088633
C        14.27244505886502   10.84912154242834    7.22247565037246
H        14.37049827145048    9.94106284398990    7.79867927290154
C        15.33492893965266   11.29884002376938    6.45748716737546
H        16.26150302752864   10.74370350619733    6.43841176392888
C        15.21397730017367   12.45436555981013    5.70450061317505
H        16.04121716775025   12.79872845411773    5.09823204436066
C        15.31529322850648   15.02181449245484    3.94945663352817
C        15.55169289684559   14.30986789690617    2.76988680187652
H        14.81846058278284   13.56816505027528    2.43683953857586
C        16.70556587067342   14.53279601696328    2.04314184714761
H        16.89114060365383   13.97448258773441    1.13760885506754
C        17.61906006467300   15.48437328558707    2.47430087263119
H        18.51779558797058   15.66596627895943    1.90389718671397
C        17.37728386148773   16.20584156368604    3.63081674911266
H        18.08551694253845   16.95195608779702    3.96041821487266
C        16.22921658524481   15.97750598519540    4.37246947526678
H        16.04497130281428   16.54661822376795    5.27298825562557
Cl       12.14848533175077   12.38208952053680    3.30444548661285
I        10.82232028725473   14.65165922630594    0.86561166519017
N        13.46625054990879   17.20561487282630    1.80867513341841
N        12.40099336201322   17.45893672560254    3.65841514113951
P        13.71571525870290   14.65373011571774    4.74057837354749
Pd       12.37927729854991   14.60905033625129    2.93067092779570

