98
CSD_code = KUJKIK | q = 1 | S = 0 | Stoichiometry = C48H44IN2P2Pd(1+) | MND = 4
Pd       10.78451081701394    5.61338203965498   15.44724465656743
I        12.24285847279701    7.36892143556660   16.70289665012358
P         9.48115464146482    5.37545080246602   17.28365141974060
P        12.10718501170256    5.74484978509625   13.61231837094680
N         7.95490601628441    3.59868245122935   13.16149777260818
N         8.63053165068483    2.52172799534344   13.62539571490489
C         9.60121837369848    4.34275627328375   14.47100013577325
C         8.52777391589821    4.71055004624724   13.66551975297906
C         9.63372779161146    2.95421551233614   14.42303974633040
C         8.04145560436284    6.07877891037398   13.35837135643940
H         7.95927496209380    6.23913247766290   12.28401793579783
H         8.75246065314976    6.80172549621394   13.77242468820012
H         7.06243970984122    6.26230754518370   13.80378386061953
C        10.59200665839880    2.02912549282918   15.07463774055005
H        10.18612909661218    1.64984095007670   16.01382281438612
H        11.51300768566408    2.57443321858019   15.29239086373061
H        10.82069954144627    1.18311885362500   14.42923473444500
C         6.79504490259400    3.50165815534308   12.32387489352434
H         6.08427232071781    4.27846899503759   12.60344352580518
H         6.32676830376446    2.52700516992284   12.45645326838978
H         7.05780753425743    3.62821168654475   11.27079702255882
C         8.32007865846338    1.18803699804848   13.26964422476260
C         7.95301102626366    0.28635328629938   14.26076893481534
H         7.88304308228424    0.61712450886251   15.28593581189718
C         7.66956521468824   -1.02284152341418   13.91419003603755
H         7.38362947038091   -1.72699172490496   14.67952460463933
C         7.74836701715507   -1.42684837138093   12.59111602154716
H         7.52512459446193   -2.44808637033396   12.32601037459288
C         8.11513534517282   -0.52245494643474   11.60743638567986
H         8.18042066924366   -0.83805388487091   10.57809036798339
C         8.40412632786688    0.78864443098930   11.94092501041638
H         8.70953131221624    1.49616497320800   11.18518348051529
C        10.50741955432255    5.08276290880750   18.74516814203615
C        11.59402940539687    4.23690161413299   18.52173215611073
H        11.74232992007481    3.82545621027499   17.51954060128573
C        12.47436592118580    3.95118010563711   19.54456262690647
H        13.31808568745895    3.29958042815965   19.37243935270783
C        12.27864234984860    4.52306681119460   20.79327107129640
H        12.97096192922667    4.31212250597669   21.59360450358934
C        11.21327508192844    5.37998101860837   21.01032714172827
H        11.07914585104851    5.83921378509344   21.97769478384587
C        10.32234999950560    5.66683416713530   19.98916707457891
H         9.50925298258343    6.35807140410879   20.15437166611473
C         8.39328958307936    6.78743662790007   17.58009526946866
C         7.44320542351523    6.78134698578161   18.59862750387586
H         7.33776807416728    5.91175764368613   19.23374891189207
C         6.63197055571862    7.88574577320188   18.77936789966659
H         5.90186443235393    7.89000815533025   19.57468201830693
C         6.75292063873619    8.98598653909445   17.94332447554894
H         6.11997954257318    9.84674943171159   18.09554147120319
C         7.67654272315516    8.98187316981536   16.91081050228959
H         7.76178461667530    9.83589099738590   16.25600187542465
C         8.49382634200046    7.88187992289816   16.72745549285144
H         9.22985484330937    7.86565869764234   15.92204366724746
C         8.29778178590644    3.98723142628616   17.31295616278278
C         7.12709412183690    4.11096142793657   16.56731241967260
H         6.91815762290169    5.04799237608634   16.06618997870036
C         6.23226951319556    3.06193562197515   16.48953049096279
H         5.32116900961610    3.16801526996470   15.91842928211704
C         6.49662453498083    1.87558276930345   17.15796525679621
H         5.79251455064391    1.05865785110318   17.10557819234254
C         7.65701912143648    1.74689515874728   17.90378948377561
H         7.85898660878397    0.82817766217611   18.43481346562480
C         8.55937270425547    2.79490505184652   17.97795428970373
H         9.45976562865457    2.69220677779977   18.56824022776188
C        11.83437241685255    4.45615358214803   12.35053927690927
C        12.51224308482862    3.24285490131883   12.39640569977172
H        13.28873287836372    3.08752017399344   13.13322406881925
C        12.21190788905694    2.24352376864072   11.48764489717070
H        12.75072051047778    1.30841978030091   11.52050174642554
C        11.23218775053119    2.44403034549808   10.52969408423586
H        11.01210455974947    1.66717202956476    9.81263547174320
C        10.54760237931964    3.64919430207748   10.48368236945932
H         9.79233012363007    3.81492153020321    9.72786403172368
C        10.84182168504888    4.64788866327770   11.39222398697969
H        10.31898669622879    5.59478324580193   11.35088134252594
C        13.83331733179518    5.48644857017694   14.10186168271989
C        14.92997024009160    6.08103635078554   13.49450473903675
H        14.79514641524536    6.76982082546238   12.67389694684394
C        16.20110967784625    5.80843455801145   13.97179637289353
H        17.05526269092431    6.27788850704556   13.50821119880081
C        16.38011823218262    4.95145834290304   15.04437197684906
H        17.37415233234655    4.75109037063618   15.41324388563227
C        15.28468157756072    4.36701445087110   15.66226976126936
H        15.42394874131421    3.71721837657803   16.51322261808786
C        14.01549461625474    4.63977829481650   15.19504888134370
H        13.13497969590447    4.22515241877025   15.69714875762823
C        12.00539862866585    7.26633710221030   12.64020214960054
C        12.62462635001672    7.37749894386402   11.39664052251965
H        13.16276016950789    6.53464823609414   10.98335618600074
C        12.53078095161509    8.56189294919550   10.69073358462129
H        13.01787323243415    8.65357503829694    9.73152215761427
C        11.81443876540722    9.63017912371285   11.21010801368903
H        11.75100151531030   10.55364321934482   10.65527440112308
C        11.17621921658310    9.51344360314517   12.43372835136388
H        10.61304434049657   10.34289052253312   12.83359166503927
C        11.26915356672144    8.33211782537885   13.14658417872504
H        10.78002469539624    8.23481308179996   14.11350535736585

