56
CSD_code = KUJLIL | q = 0 | S = 0 | Stoichiometry = C27H23I2N3Pd | MND = 4
Pd        0.75607878198979    1.09401446786190    6.70264922148303
I        -0.27438289156808    2.83447918163331    5.03784193808964
I         1.79613547184660   -0.58836420279958    8.42019013321555
N         4.46035406257115    2.63268537244831    5.65158657918907
N         4.37069782037903    3.15798594222833    6.90305572470692
N        -1.02598673753643    0.18296676124966    6.86519932083169
C         2.50450328217596    1.98057143114582    6.52721559568474
C         3.33695938326009    1.92103577395903    5.40579694270851
C         3.18037127517015    2.78465788791709    7.44647782294931
C         2.97559896456262    1.26081069687139    4.15870823212429
C         2.26164458703571    0.05681926387911    4.23120538919208
H         2.12155729205843   -0.44094651469974    5.19620082129779
C         1.79127566465071   -0.54147017452649    3.07676521629250
H         1.25062486064156   -1.47550301346385    3.13762779744946
C         2.00730040748519    0.05278464704813    1.84355119191812
H         1.62556060849620   -0.40974518485405    0.94584880615373
C         2.70064171666629    1.24819413923825    1.76699167847177
H         2.85360771491378    1.72449138012076    0.81010248370780
C         3.18175724468095    1.85277223129082    2.91384841839179
H         3.66565288369063    2.81560691855450    2.84239717610781
C         2.72561563015401    3.10139253761283    8.78965867582549
C         3.60367885915291    3.29605401420412    9.85528684363019
H         4.67021252449638    3.24639376455651    9.69691736179707
C         3.11653670417752    3.51035769366023   11.13042934604338
H         3.80901094898700    3.64894484604914   11.94749231816220
C         1.75244605338020    3.53229059038799   11.36582226061039
H         1.37757542881654    3.69249601234375   12.36552126071633
C         0.87004410980926    3.33888935576261   10.31518953593471
H        -0.19505268807108    3.35671765498549   10.49649141931770
C         1.34647969648957    3.12206738553788    9.03688679492754
H         0.63662495559211    2.99992842695695    8.20834490749764
C         5.60736023293875    2.84224185735121    4.81851368771054
H         5.63149396418319    3.86717465488726    4.43666602851537
H         5.55572273311566    2.14625978557333    3.98372084609539
H         6.52640210151355    2.65710894508367    5.37584848357299
C         5.30577275225533    4.08735366765831    7.41016049003149
C         6.58542620314997    3.67761360888718    7.76830929680550
H         6.86607432103537    2.63773357781437    7.68156254802747
C         7.47830301369117    4.60465300113581    8.27517764492149
H         8.47093989473406    4.28940221572827    8.55808498304421
C         7.09611713895847    5.92705203320913    8.43122505857189
H         7.79565893863878    6.64469181595918    8.83118154310307
C         5.81579856612006    6.32748662707391    8.08545333770669
H         5.51523043924938    7.35562114829367    8.21485722184678
C         4.91649213924401    5.41179073316848    7.57041468553491
H         3.91436319749457    5.70906950204499    7.30030965454958
C        -1.46477809252841   -0.61241742023142    5.89517903913157
H        -0.80745120818470   -0.73599178428398    5.03458720609080
C        -2.69379918323631   -1.24333966573764    5.95868063734857
H        -3.01454345745252   -1.88388810449585    5.15228910496206
C        -3.49671598726318   -1.03021925489230    7.06883212844400
H        -4.46344929792367   -1.50399916960096    7.14799328513871
C        -3.03382096085443   -0.19599367898696    8.07483256220161
H        -3.62492398171993   -0.00188830542428    8.95589569773744
C        -1.78825281790665    0.38831238705922    7.93430099039736
H        -1.37774526539018    1.03929253556028    8.70622262410517

