38
CSD_code = KUJTEP | q = 0 | S = 0 | Stoichiometry = C17H14CdCl2N4 | MND = 4
Cd        7.66769779127477    9.99185807493080    7.03684995349525
Cl        8.88404366840654    8.60851019702658    5.51956974820584
Cl        6.34675375005163   11.20629401694491    5.47517126908406
N         9.19448464028707   11.10218666166625    8.08597474813614
N        10.81704750384444   11.48448576071779    9.60918536894719
N         6.65027950590869    8.72464685021938    8.43982705060365
N         6.36142671309859    7.39806645931658   10.24090496934789
C        10.29057381251328   11.62110463668881    7.42776623405028
C        10.52277351626908   11.87274675010409    6.09309304842604
H         9.77247439842269   11.66694385647160    5.33977724699759
C        11.76887889544853   12.39496024042682    5.75395138345540
H        11.98113469979528   12.61258953980296    4.71806380788907
C        12.75757516940658   12.64770942255105    6.71536788339709
H        13.70322593281291   13.05516678550204    6.39177647734806
C        12.54715575443151   12.39657224599023    8.05034433833585
H        13.29618192584138   12.60040476060730    8.79846336460207
C        11.29884688998281   11.86608076657107    8.42241400248781
C         9.55785342736207   11.05120668617584    9.36367499106414
C         5.30771930331280    8.43823884767111    8.54996323415864
C         4.21639601352122    8.87184355211569    7.82821017846464
H         4.32983243513784    9.55017657881528    6.99202778208867
C         2.96618417729897    8.40629110502684    8.22525364193461
H         2.09283040110514    8.70771709499581    7.66683805700939
C         2.80528431362434    7.55754952423204    9.32942364610427
H         1.81090721810340    7.22784595493509    9.58974694753142
C         3.87918584487589    7.13029281924517   10.07405290100944
H         3.76574219916449    6.46176242444849   10.91209013882758
C         5.15495017665313    7.58041319079079    9.69371373335040
C         7.22479124820504    8.06728823607941    9.44429242712602
C         8.68341081042430   10.55228395865091   10.45327510043865
H         7.63684326045226   10.62864407908577   10.14484843551934
H         8.84865511634188   11.18042710140896   11.33098018235017
C         9.01719105462530    9.10130571490940   10.83521778776621
H        10.08135917893592    9.03207164446126   11.06526925510630
H         8.44747533069091    8.83448284551534   11.72677947543950
C         8.68259568992551    8.10028320714425    9.71799431176789
H         9.22161337879179    8.35908064275053    8.80067874859324
H         8.99082485364874    7.10626776600241   10.04826812953977

