68
CSD_code = KUJWIX | q = 0 | S = 0 | Stoichiometry = C31H28HgN6S2 | MND = 6
Hg        5.47460732435800    9.58132901174142    5.04211696367930
S         3.11724578816009    9.49325965517479    5.88609601920717
S         6.44804773174997    8.03113816412892    3.33065584052410
N         6.49329876792949   10.46557620151068    7.17509325522966
N         6.20006280643294    7.82097464132062    6.77901238761983
N         6.86610183901484   11.59467143653113    4.43268222396486
N         4.54425154708315   11.08923569188675    3.17116166132205
N         3.72882711998654    9.22961840201185    8.60133664800223
N         7.29974909776016    9.99524036683705    1.53291917280066
C         7.84619411300496   12.45039987174713    6.54698585577711
C         6.59619120258721   11.89530248140048    7.26450773746162
H         6.60865103122089   12.24430798214934    8.30470906482525
H         5.70690837293346   12.29731574207547    6.76843207798426
C         6.56878786045475    9.71814939861327    8.20433444969646
C         6.83138926190954   10.19879751320610    9.58501763442260
C         5.82155220338399   10.79176189904603   10.33542517842072
H         4.82954132044137   10.86179670128791    9.91621748807853
C         6.08847536248688   11.24356430469622   11.61597839104590
H         5.29937862130464   11.69694290801477   12.19681534407221
C         7.35906264504826   11.11506652587071   12.15233305358548
H         7.56473207310042   11.47241268582489   13.15041106762707
C         8.36487444512458   10.51918438134123   11.40965201824248
H         9.35521169379971   10.40966483927961   11.82633319679746
C         8.10332985862260   10.05772342476783   10.13187282138573
H         8.88592375618211    9.58555914219315    9.55478740049853
C         6.39624844379266    8.26243931635564    8.02562556069918
C         6.00876298955970    6.52819800692992    6.57608538505762
H         5.86321260667535    6.22197654569720    5.54707537365868
C         5.99626465938625    5.59649835631580    7.60394611364987
H         5.82816746078600    4.55304177196762    7.38960570456401
C         6.19168662650683    6.04428954235739    8.89989765065800
H         6.17681195698975    5.35451210968320    9.73069624498769
C         6.40139596755918    7.39507189036967    9.11626299071626
H         6.54514368236583    7.78005166581643   10.11308646096657
C         8.07878427514159   11.76245952723801    5.18387492296081
H         8.83197845175278   12.33645391220460    4.62975277017402
H         8.46730438921014   10.75557085165182    5.36729634147762
C         6.67093832043146   12.19338810102525    3.32474215726276
C         7.61126734841581   13.16325207041100    2.70784428229791
C         7.34272277524685   14.52652180909914    2.78498936992819
H         6.44368667934986   14.86898773740863    3.27790825199852
C         8.22303427919270   15.43982669511094    2.23267456324078
H         8.01013432121073   16.49656197738989    2.29914015083133
C         9.37006280189548   14.99971256150377    1.59330646542049
H        10.05485288076646   15.71420758088166    1.16118950500598
C         9.63230917830463   13.64268639502555    1.50206948481286
H        10.51984722238050   13.29604700515640    0.99431028823310
C         8.76052369498745   12.72367563305859    2.05923077312819
H         8.93941067839552   11.66296463069565    1.97180994960395
C         5.41589862793705   11.92315419411981    2.59494769582390
C         5.17163582021792   12.48642992590609    1.34394907268193
H         5.90014679555402   13.14154694401664    0.89386860117991
C         3.99801728529670   12.16838667451128    0.68301081150818
H         3.79269667774500   12.58123825804906   -0.29354081966468
C         3.09803350816257   11.30992424977801    1.29241622252467
H         2.17177450829147   11.03495014944163    0.81339769384736
C         3.42010498881735   10.79494315755014    2.53969470323979
H         2.74473180914042   10.12188760808767    3.05419239597540
C         9.08376056774792   12.21206802445347    7.41302641637440
H         9.97385354271479   12.58594007414563    6.91189562832544
H         9.21670467385711   11.14982187557042    7.60219802433969
H         8.98545823643427   12.72292313738446    8.36837923463082
C         7.64241087566328   13.95123684074015    6.33622647126812
H         7.45928865837194   14.44535410221639    7.28778502135574
H         6.79013344128445   14.13160718283170    5.68585017135181
H         8.52428515223855   14.39613287656323    5.88047744815349
C         3.49104820888445    9.33642437466249    7.47695477966877
C         6.94176908725352    9.19464128399757    2.28316271383048

