29
CSD_code = KUKDIF | q = 0 | S = 0 | Stoichiometry = C14H12MoO2 | MND = 10
Mo        9.26071118789344    5.60765108137950    2.92754182777210
C         9.61051916339675    7.05628449903401    4.13677503663008
O         9.81512077307731    7.92446232675042    4.86061037214905
C         6.96231043441099    5.46423945348521    2.92751849542921
H         6.21924579566024    6.25598232230811    2.92752409962851
C         7.43841030831972    4.78915999589718    1.77132578792885
H         7.11864128630155    4.98810582172493    0.75660862426088
C         8.15370837962742    3.63930410779700    2.20598134321148
C         8.72320466157069    2.55118778559262    1.50762607047067
H         8.69891180241987    2.53267518159927    0.42593401435018
C         9.26110863888951    1.51518838749429    2.22177700132843
H         9.68893120764086    0.66940081444180    1.70372613983988
C        11.20251252038033    4.55970336378504    2.92751260353022
H        11.14669832231544    3.47050054587627    2.92752016912488
C        11.23866986845279    5.29862402601913    4.13110322710914
H        11.18940718036966    4.73565400355904    5.05880035950187
H        11.90842366107391    6.15298194160629    4.18357935091047
C         7.43841054350460    4.78914284373622    4.08370116642236
H         7.11864669207246    4.98807838367375    5.09842131512825
C         8.15371041218602    3.63929526859415    3.64902927609071
C         8.72321644514441    2.55117329483990    4.34736695187290
H         8.69893474013458    2.53264956813346    5.42905895751727
C         9.26111551818947    1.51518265198158    3.63319950729298
H         9.68894716131295    0.66939213542303    4.15123848268070
C        11.23865305793761    5.29860894361113    1.72391145744948
H        11.18939274418931    4.73562446949572    0.79622216007989
H        11.90841833367128    6.15296201572674    1.67142171651490
C         9.61009374097359    7.05591242255580    1.71783641832531
O         9.81552541888321    7.92457234387830    0.99462806744929

