49
CSD_code = KUKGON | q = 1 | S = 0 | Stoichiometry = C14H26N4O3PPd(1+) | MND = 4
Pd        3.39869985901498    2.08990039452697    1.38063005651430
N         3.59034007720079    1.79709294449713    3.44196338073261
N         3.44311997453348    0.55488106676271    3.92122824216592
N         4.42993129154010    0.11966756354016    1.21773534269693
N         4.07248171812127   -0.81202474762902    2.11061153299452
C         2.53562256792447    3.91829271723367    1.72288093433106
H         1.84934519981476    3.81631095381245    2.57212243594601
H         1.99720925632672    4.34692506638644    0.87625629049311
H         3.36142813551633    4.58985018838769    1.99641164713081
C         4.06290753617221    2.53658460160567    4.42873150348145
C         4.22669611859626    1.75449095154311    5.57869680544884
C         3.82661571101637    0.49224796823731    5.21378683312995
C         3.01609420048257   -0.50500711342640    3.04142978741391
C         5.46119827688601   -0.36187791691296    0.55189410424493
C         5.78221712837344   -1.64164082172543    1.02525263860820
C         4.87713318667742   -1.89293132744322    2.02799650671871
P         3.12743688587968    2.32727598013449   -0.81550989234780
O         1.56798074503018    2.47845069235172   -1.20014602998603
O         3.76127353991891    3.41679370383612   -1.76762209169192
O         3.62554665251936    0.99110709802990   -1.51401417847795
C         0.58225091928354    1.84954974078544   -0.38743882707116
H         0.29622497202711    0.90490833494774   -0.86118799232751
H         1.02148178642551    1.63010976273085    0.61282319406991
C        -0.62460958356607    2.76152414022218   -0.25158282778001
H        -0.35068362850541    3.68098384480514    0.25778032974577
H        -1.40219632132923    2.26025977228516    0.31693476466288
H        -1.01167789690238    3.00932350473649   -1.23589953879342
C         3.47909747779345    0.78703548740170   -2.93382151504718
H         4.35022867863037    1.21813131799419   -3.43285299621649
H         2.58140557294700    1.30534120095486   -3.28223343773799
C         3.38530476863977   -0.70488578961424   -3.19408376092593
H         4.27641249908033   -1.20776487957115   -2.82770434509383
H         3.29470993430521   -0.88123986790717   -4.26198909797365
H         2.51772504166011   -1.12544404313313   -2.69181501421112
C         3.61241955901711    4.82954071146041   -1.56849494622926
H         2.54737544731512    5.07674752000763   -1.54316696817268
H         4.07253494627011    5.10169406850500   -0.61252948391195
C         4.29932206223222    5.53663743186805   -2.72226792738038
H         5.35299526070333    5.27362286794821   -2.75005067217247
H         4.20512046643928    6.61149675646963   -2.59965926589611
H         3.84287175857531    5.24683730593273   -3.66461208851020
H         4.26092480389066    3.58395501061019    4.29883143281465
H         4.58512366608642    2.07345721297290    6.53453322805417
H         3.78067038587420   -0.41801276155131    5.77601333010255
H         2.75959517517700   -1.39224265333513    3.62494024411265
H         2.13374262257785   -0.15066408691951    2.47068389743418
H         5.92337899169230    0.20651042417144   -0.23235213742424
H         6.56494296488203   -2.28407896735784    0.68074921969068
H         4.74972960708716   -2.74692333052981    2.66151735291467

