78
CSD_code = KUKXOE | q = 1 | S = 0 | Stoichiometry = C36H35ClN5Pd(1+) | MND = 4
Pd       -0.56155734218318   12.27990392313939    5.35142146695267
Cl        0.15601691923088   12.16699829580939    3.20809454802575
N        -1.18267271945779   10.41581024710591    5.11672033042739
N        -0.30047254096780    9.40732304274763    5.16842383277337
N         1.12404153382458   11.52835401432544    7.20801650113777
N         1.55707251655649   14.17514430966606    5.95816689923055
N         0.26080909150044   14.06549704753922    5.64017410084635
C        -3.75992760985113   11.88771239253837    5.21537324845708
H        -3.03271331899769   12.21635838898434    5.96148340317269
C        -4.94448617466040   12.58859842348952    5.07715965703989
H        -5.12693677642796   13.45708279126508    5.69139558477033
C        -5.89784099020652   12.17298306597740    4.16258767274804
H        -6.82056318402117   12.72219397488939    4.05742416749064
C        -5.66421766571874   11.04984328319075    3.38529573289088
H        -6.39920233949444   10.73000287248369    2.66287757094764
C        -4.49710354099865   10.32756260134035    3.54092227117589
H        -4.32034204955891    9.45198105293944    2.93619908843678
C        -3.53308739403036   10.73339189165679    4.46467214970106
C        -2.33660914686761    9.92497309434805    4.66218542591985
C        -2.18908620945083    8.54656383187451    4.44888006496493
H        -2.93017028836534    7.85961769438296    4.09853014238035
C        -0.87895951196773    8.24894058717840    4.77212413618937
C        -0.19375781682859    6.96112324000026    4.68693125730364
C         0.98034514119877    6.82232330921700    3.94840869391793
H         1.38891358262410    7.67222755173539    3.42060657296973
C         1.59339910478356    5.58663825375488    3.84832020646747
H         2.49749511428472    5.48440450207857    3.26796490752023
C         1.04500825168542    4.48314734381289    4.48106960698687
H         1.52642991489083    3.52102123926800    4.40105295221518
C        -0.12903772595541    4.61319161957947    5.20494105268014
H        -0.56428817375430    3.75274312805442    5.68918001719742
C        -0.75050454435527    5.84419015685829    5.30490042215894
H        -1.66627887449014    5.94963128779662    5.86727802448703
C         1.05023118941124    9.59089315194945    5.64169452105227
H         1.55754848171112   10.31540495686693    4.98892657821982
H         1.54747073880283    8.62325776215541    5.55644536859034
C         1.10960250558838   10.06871653177833    7.10839754378975
H         0.23339231124416    9.68231434905744    7.63506023014605
H         2.00046221938378    9.63580245194177    7.58408994530631
C         0.45388713850071   12.02903563372378    8.41056778709026
H         0.80416059600226   13.04657115609658    8.60125715182521
H         0.69574754559095   11.41734721448948    9.29035741286317
C        -1.05459600981489   12.07297192119187    8.19134127348948
H        -1.54161054529238   12.66504621788526    8.96224203393840
H        -1.49774977494001   11.07772195466001    8.19441977369411
H        -1.24592224752817   12.55466544629726    7.20797611658663
C         2.45243790585658   12.10433874074304    6.98287217803098
H         2.79568234135067   12.64574932677421    7.87109427703465
H         3.17951147707790   11.31495010696627    6.77441960359931
C         2.46031820426398   13.06807826674391    5.77840201303731
H         3.47088866744744   13.45812314215668    5.64979979045075
H         2.15043884364266   12.54091712194386    4.86469235949822
C         4.21606843339294   15.86949840004240    6.00474715424919
H         4.06870521949657   15.57273376658122    4.97600482397220
C         5.45592796399376   16.31591562154617    6.42438539870595
H         6.27971561574545   16.33779497545328    5.72767864568518
C         5.63792228845535   16.74252721704114    7.72968401953485
H         6.60655216395713   17.08982330699774    8.05358988253567
C         4.57240920308147   16.73577384250897    8.61459856039107
H         4.70835852928026   17.07874890427232    9.62867196728570
C         3.32892861447861   16.29488949654520    8.20006972533012
H         2.49461534833507   16.29195547904603    8.88640567832843
C         3.14477123230075   15.84812279124544    6.89466954155013
C         1.81900741299674   15.40225172686285    6.46452505058712
C         0.62421080615483   16.09804357920333    6.46890255157489
H         0.47868972517693   17.11256325355844    6.77511175806728
C        -0.33144121835149   15.22485788879156    5.92700553038540
C        -1.73097534259906   15.49026445336203    5.61079599033579
C        -2.44299769324390   16.45730548281268    6.31945267703726
H        -1.97904183202875   16.95667409647156    7.15647210734742
C        -3.73719435319297   16.77623818393712    5.95408997775831
H        -4.28026847267808   17.52698068978636    6.50749672061764
C        -4.32867745187034   16.14927073950691    4.86915690746243
H        -5.32999224669984   16.41859524067863    4.57008965230922
C        -3.63081457471790   15.18121861718557    4.16431466565896
H        -4.08571098866235   14.69886674655223    3.31269161864041
C        -2.34410126124418   14.83651193485840    4.53767269059046
H        -1.79358394183889   14.10418965267996    3.94627903623989

