44
CSD_code = KUKYIA | q = 0 | S = 0 | Stoichiometry = C20H17ClNO4V | MND = 5
V         2.70062418997845    2.78778909611996    3.20656523873020
Cl        5.74700911909845   -3.35468931782822    3.52277192470665
O         3.48053929050612    1.74882043565814    1.94756628559110
O         1.25499329711420    2.81648650155693    4.20349645664278
C         4.28319805432934   -1.13710010383190    3.93175605435563
H         4.05120510609149   -1.57323297763365    4.89134854052710
C         3.77412251095777    0.10397339640518    3.54670023046891
C         4.06352504706431    0.62962258748171    2.26111458376756
O         3.81825685725576    3.40120955907047    4.04672283469164
C         3.33810151115739    5.83595027774301    1.78229950994207
H         3.33785007619399    5.88560958971619    2.87764879068292
H         3.20649528842806    6.83948526995946    1.37178346550696
C         5.42794536237018   -1.29929749019898    1.80421560994616
H         6.07572669765804   -1.85853071206512    1.14749986443909
C         4.65332385574891    5.22742178495039    1.30615603064896
H         4.74485763091779    4.21111779413668    1.69841487152350
H         5.49389884740836    5.81504387743195    1.66594327894513
H         4.69011269377163    5.19751240266584    0.21809894288434
C         2.15108503860817    4.95618419048424    1.36502111653890
H         2.21047993311845    4.72143668306577    0.28703184550374
H         1.19846539980635    5.48503577638926    1.55140446811852
C         0.91311306495934    1.23956563652764   10.35380237473836
H         0.69979132440555    1.13319960150695   11.40663364919897
C         4.91488368175075   -0.08269692772932    1.40610587821968
H         5.14775180077019    0.32587402738555    0.43467980117773
C         1.91182011326818    0.46095367050139    9.76315713320069
H         2.46902500203302   -0.23867851636655   10.36854804672593
C         0.22021976646875    2.13851514574277    9.58843479950918
H        -0.54790501703061    2.75771221006871   10.02895164422798
C        -0.21516633194028    3.23137298904733    7.43735080535586
H        -0.97406164056980    3.82897771726846    7.92217980477023
C         5.10397840439931   -1.81821409673471    3.05442542668215
O         2.14437883474980    3.79157152816741    2.07397341795882
N         2.96232533955207    0.95899910034550    4.25208880272975
C         2.64558216713692    0.78844812897458    5.49677785507063
H         3.06093466787773   -0.06629490546241    6.03043653678690
C         1.49223381663785    1.48128056719700    7.60498018214339
C         1.75186984946863    1.63859865214220    6.19947969773165
C         0.49376853703462    2.28291570453734    8.21626818765645
C         1.04844966777587    2.62314462866638    5.46509974505661
C         2.19437250174229    0.57936346081117    8.42585317802602
H         2.98503339305082   -0.02727822886790    8.01415458757768
C         0.05123688051579    3.40184520937761    6.11708874797503
H        -0.47575163164015    4.13227607561468    5.51936975332267

