40
CSD_code = KULGIH | q = 0 | S = 0 | Stoichiometry = C16H19ClN2OPd | MND = 4
Pd       -0.41234346804522    5.59410662829399    8.05454934851591
Cl       -0.15457346635731    3.34901269979420    7.34805129664608
O         2.06410633519580    4.39569341612119    8.97467528098132
N         1.30075808476595    5.53904327244343    8.97557629561167
N        -2.15035995994870    5.68498546708175    7.13368079910854
C        -0.38752344808690    7.46946153891709    8.76868316181213
C        -1.30355575315412    8.50636433969225    8.65218141110816
C        -1.06388596059009    9.74430105854432    9.23644681789069
C         0.10088491053400    9.96933069445360    9.95020596502931
C         1.03390510563895    8.95760855808648   10.08658647608182
C         0.79494391310561    7.71662697900514    9.50251440105109
C         1.71630537447130    6.58813129200743    9.59169435320129
C         3.01353152104649    6.64704941328390   10.32942813593795
C        -3.24573910278890    5.25626278970486    7.76311572338126
C        -4.45600328782991    5.15272225583320    7.09436692632504
C        -4.53477636840367    5.49002214024157    5.74829188076506
C        -3.36913933279017    5.91896569531723    5.11945318526943
C        -2.18766140412822    6.00232992295000    5.83701825719748
C        -3.07009645358350    4.88520787670374    9.20307637071253
C        -5.81551774040954    5.37834101486248    4.98715258690809
C        -0.88590913215649    6.42652073343486    5.23021962516851
H         1.51966399643815    3.75275929666041    8.43208485913205
H        -2.22593933154411    8.36073833985015    8.09904286494208
H        -1.79201169929944   10.53670546389103    9.13213634922186
H         0.28179143688529   10.93443505931456   10.40080210442433
H         1.94211497970533    9.13455532886739   10.64411523935712
H         3.64704394539698    7.42679969866918    9.90938109394682
H         2.83540458972346    6.87839421786159   11.37856539862967
H         3.52526992749960    5.69078603296528   10.25529679610453
H        -5.33070012013347    4.80291785439340    7.62056763716206
H        -3.38230166905815    6.17885472781673    4.07220898977365
H        -2.64614614560882    5.73607634320438    9.75499103627597
H        -4.01269345777957    4.59012653015891    9.65682077728781
H        -2.36252868568511    4.04567199434733    9.27240893475477
H        -5.76462274112195    4.53274409509649    4.30146847336887
H        -6.65701501637555    5.22745454094676    5.65779257885165
H        -5.98755960126893    6.27517760107576    4.39516217948052
H        -0.48765360770110    7.29152549940650    5.77817710456261
H        -1.00074642107623    6.68312130425298    4.18034457139418
H        -0.16262074545245    5.60186828447873    5.31966471262656

