39
CSD_code = KULGAZ | q = 0 | S = 0 | Stoichiometry = C15H18ClN3OPd | MND = 4
Pd        2.58265975707684    3.45188437963533    2.66240586398435
Cl        3.80426952264966    1.63312335255548    3.52847691454030
O         1.45454926992081    0.89206436820086    1.91206313759945
N         1.30692980306673    2.25639505591531    1.81685166467759
N         3.86611387570924    4.68526489836049    3.50932197264118
N         6.87279186642009    6.54258149055041    5.72270779698256
C         1.37424936478812    4.82961908750850    1.83769496766370
C         1.41621334511591    6.21781158344586    1.85380851378356
C         0.44264174556346    6.97238018984416    1.20982333459381
C        -0.59617893391365    6.35206580394235    0.53693043681996
C        -0.66916916017935    4.97127298671184    0.50120287376408
C         0.30532495706615    4.21320138686030    1.14429973402293
C         0.31756843780234    2.75278458675687    1.16010163457102
C        -0.71410917496720    1.91598313247667    0.47689414419883
C         3.59712740936025    5.29058635326905    4.66830581466398
C         4.55359080159100    5.91801403359079    5.43145288640116
C         5.89606167282574    5.94091377045029    5.00338793992499
C         6.15488231859202    5.30100014327187    3.77452678218931
C         5.13176143841169    4.69732623050397    3.08339134469710
C         8.24245952938837    6.50403414020683    5.26836388426042
C         6.56587709418977    7.17891221572108    6.98138892846359
H         2.28008113847494    0.78579962183275    2.47222590357468
H         2.21836602363019    6.73333953099950    2.37129546773154
H         0.49696050108404    8.05212162319940    1.23445967664888
H        -1.34982297112903    6.94531200613189    0.03932755109100
H        -1.48062801254332    4.48874019405668   -0.02406733587313
H         2.55899244489244    5.26621217809891    4.99221304466839
H         4.25475985148804    6.37665304197872    6.35799911497495
H         7.14834117661292    5.26293645189209    3.36282941653933
H         5.32593276045510    4.18864647795547    2.14091897438356
H        -0.72590902557847    2.13525353035158   -0.58959307862452
H        -0.49185558073022    0.86212060973713    0.62406651420374
H        -1.70056261206457    2.13511833891443    0.88261609770053
H         8.34997483113661    7.00877434551921    4.30409807263206
H         8.59479815705934    5.47378622260045    5.16691600527280
H         8.87874477991399    7.01053350869020    5.98904937353379
H         7.46849604997104    7.62071901910921    7.39476299642948
H         5.82881286718198    7.97509548332760    6.84629541227306
H         6.17530267966850    6.45761862582561    7.70518622239681

