115
CSD_code = KULJIM | q = 1 | S = 0 | Stoichiometry = C60H48I2OOsP3(1+) | MND = 6
Os       -1.22258036405936   15.51188771138301    8.37498980674536
P        -1.88417522913039   13.24501604112506    8.62182781266681
P        -0.91087653034162   17.87207697714517    8.34140407916584
P        -1.14346880361295   15.16637291695926    3.61565866157032
C        -0.70378390202453   15.52844265437911   10.21239504010089
O        -0.12911331388586   15.50560798326271   11.20492851927725
I        -3.91308078602510   16.04225781856827    8.68720233738567
I         3.42305602462202   14.35701604177778    6.80917421320405
C        -1.50857104011950   15.48217451551091    6.36097479259548
H        -2.51417867215153   15.70289136953274    5.97498787818390
C        -0.61346088639670   15.22532195903511    5.35050120067172
C         0.75203193217595   14.92319030013628    5.54068973202015
H         1.36841955148434   14.75482758322480    4.66512498271692
C         1.32321580503907   14.85030636632908    6.79424647307696
C         0.69177319545633   15.05669323938994    7.99638215423703
H         1.36083259446158   14.93321161166928    8.85182207810826
C        -2.34445950473027   12.64099611180530   10.27739413413490
C        -2.28779003595593   11.26452374493719   10.50169074251072
H        -1.97797783456112   10.60243954045929    9.70396714433571
C        -2.62629786369659   10.75196194873322   11.73820279033806
H        -2.57720835239432    9.68692567659214   11.90721948367071
C        -3.02628449283010   11.60153224510860   12.75900104247873
H        -3.28621088342683   11.19772197347205   13.72534397590236
C        -3.09714058090367   12.96555179700835   12.53633017606901
H        -3.41816153350037   13.62919824622818   13.32456268677302
C        -2.75901497445293   13.48612460820668   11.29911906284811
H        -2.83498260531189   14.55139933736132   11.13498085060411
C        -0.48001634548831   12.12976059820223    8.25804654309405
C         0.59672662868631   12.23016450231290    9.14015166978450
H         0.51647010587953   12.88537084287422    9.99966877777063
C         1.74387967991368   11.49141516290765    8.93384434570083
H         2.57354177022513   11.57773856249219    9.61883369409421
C         1.82880561785492   10.64060825444968    7.84156256322674
H         2.72968553033715   10.07245663527162    7.66918037336800
C         0.75330862350933   10.51565693046820    6.98077700153357
H         0.81004118398295    9.83433082743902    6.14450070881755
C        -0.40276502290328   11.25324188532663    7.18424941440203
H        -1.24232271634441   11.12604328443539    6.51583176243568
C        -3.25519407248690   12.64369361935487    7.58720421407063
C        -3.11487984049647   12.65051182372486    6.20169001411922
H        -2.19946242532546   13.02735850424197    5.76189456079351
C        -4.13779140432322   12.18944685305094    5.39403228177300
H        -4.01065153041685   12.17176289174007    4.31994021013483
C        -5.32365303860731   11.75249884603694    5.96281125168436
H        -6.12495254384319   11.39964655157728    5.33188819280514
C        -5.48322543056621   11.78327901306873    7.33789738719836
H        -6.41369050360162   11.46500439964530    7.78162755129350
C        -4.45505569314110   12.22323689036957    8.15227816021196
H        -4.59115719503637   12.25152776280123    9.22316704982439
C         0.74188856204689   18.26683632556669    7.67020808951292
C         1.82602502667198   17.80953456281286    8.42055864531103
H         1.64339965941870   17.32718154543345    9.37343652103141
C         3.11698956668544   17.99020990102989    7.96784879450312
H         3.95058196081712   17.63466198273526    8.55407887148930
C         3.34011878314025   18.62774443552293    6.75584119495690
H         4.34825222597030   18.75841354338513    6.39407512254182
C         2.27024141198581   19.10597420024321    6.02110050564171
H         2.44334985484754   19.62787909244261    5.09129539737188
C         0.97122070560756   18.93172402413557    6.47349792286518
H         0.14502408046069   19.33348389336691    5.90374587462499
C        -2.07239644319573   18.89831848136377    7.38807665157723
C        -2.21916080392269   18.68742362218053    6.01845881975566
H        -1.64868411789914   17.90712942144779    5.52806499787219
C        -3.09617427084326   19.46388348701087    5.28664409108981
H        -3.19328088515347   19.30554049365631    4.22316217063254
C        -3.85563999219816   20.43657239610701    5.91630617478652
H        -4.54590457316684   21.03546465818111    5.34247591115614
C        -3.73559677864219   20.62986009944271    7.28133011321960
H        -4.33693758023849   21.37491924778615    7.77870087737718
C        -2.84752768362968   19.86737633422288    8.01807174986156
H        -2.76539839936336   20.02211884829169    9.08348130075763
C        -0.86295784292306   18.72256634498195    9.95216671378408
C        -0.04152794057286   19.83583431180787   10.12343961026059
H         0.57980706836716   20.18104922773529    9.30880539004265
C        -0.02215770655113   20.49842130012291   11.33630247054256
H         0.61998235482378   21.35668143235046   11.46426941767252
C        -0.82215762770625   20.06595468553049   12.38228955483309
H        -0.79988037957128   20.58431233442094   13.32846687757618
C        -1.65542483798177   18.97342347076466   12.20989256258280
H        -2.29111719800657   18.64136043598868   13.01649289279891
C        -1.67885852953431   18.30426483095665   10.99975941421319
H        -2.34928677050526   17.46634579488677   10.86979052333644
C        -1.38907505366204   13.45081444191952    3.09451079138669
C        -2.31328691766077   13.16497014929726    2.09187184994880
H        -2.89151190323737   13.96342105377246    1.64646178761383
C        -2.48843117209342   11.85735868300748    1.67656085282228
H        -3.20415867652416   11.63351223624825    0.90039620105968
C        -1.74929925517810   10.83839207239963    2.25772863901992
H        -1.89209195900779    9.81915775985743    1.93398008808823
C        -0.82875401616029   11.12454811235281    3.25362301240335
H        -0.25313050987316   10.33011300861205    3.70268851317358
C        -0.64242454136800   12.42879239398617    3.67439523074699
H         0.07175448603829   12.65013495653352    4.45659042294454
C        -2.69382393838674   16.03851054745343    3.32139911623852
C        -2.72507717167732   17.15851239938772    2.49520819054499
H        -1.81567870009610   17.51738774074384    2.03256059673519
C        -3.92854961016588   17.80284726496172    2.26704337416594
H        -3.95841883229594   18.66253471241253    1.61434513006886
C        -5.08905248201346   17.34908741481509    2.87518706415534
H        -6.02199409229112   17.86281101470621    2.70336540285909
C        -5.05665468064346   16.23414472080766    3.69829298016445
H        -5.95852512732481   15.88028993856512    4.17273688952803
C        -3.86591880423369   15.56508545798596    3.91248209561564
H        -3.85234590623762   14.67360755902130    4.52428355316842
C         0.14279958699383   15.88979184873747    2.57493328304509
C         0.80617990812392   17.02826341732065    3.03069775411063
H         0.56341807425239   17.44434820142390    4.00022553982070
C         1.78307515619172   17.60795865015770    2.24379514264928
H         2.30302525590186   18.48645881677177    2.59312784443575
C         2.09769470407835   17.05817259790085    1.00998611476006
H         2.86362213599172   17.51146559469759    0.40019568182218
C         1.43704819709406   15.92630324374411    0.55895024146642
H         1.68694795249272   15.49955526519836   -0.40004552344302
C         0.45742200046701   15.33648954114117    1.33801458992619
H        -0.05754729869671   14.45026945686746    0.99397274367101

