127
CSD_code = KULJOS | q = 1 | S = 0 | Stoichiometry = C66H54INOOsP3(1+) | MND = 6
Os       14.73370774279232   16.58803974325294    2.74203925797597
P        10.16406205721744   17.06078563437252    3.12645995492768
P        14.66794228168684   17.18138118661713    0.45850046222267
P        15.04397331287545   16.49484188911692    5.08047415591840
I        17.41776766466617   17.25847400267309    2.61627571132887
O        14.88056661482376   13.60902836397799    2.29061576827968
C        15.82630269454943   16.43360651835708   -0.73906931108130
C        11.94145015687905   17.22581159460286    3.03298018521150
C         9.40096558609157   18.39459624684542    2.18016691078446
C        13.13781295224904   16.78803247253759   -0.46807166739446
C         9.64464503399570   15.47508567553896    2.44851632572923
C        15.87413886855976   16.95173367764551   -2.03236283637692
H        15.26678695287981   17.80757476431577   -2.29421551322805
C        13.63402280600964   15.90038701010106    6.08783075088518
C        15.47626087067486   18.10542208747751    5.81738009870773
C        12.78284505929772   16.16015693458521    2.81329272881787
H        12.30227467321452   15.18491512190167    2.68230925754494
C        13.91282902649760   18.57195788720556    3.10157715563261
C        12.52829266777760   18.50580444094787    3.18005706126143
H        11.89349339285749   19.38144206122687    3.32593672694854
C        16.28434265605302   21.44894190652978    3.34473957205863
C         8.33564203494427   19.14051739835236    2.67094064815573
H         7.93561310329874   18.93307916481636    3.65380716739061
C        10.32406771825923   17.79514879281120    5.79534738361739
H        11.27268180843558   18.23378562603619    5.51982059521811
C         7.89858903131907   16.62955298362273    6.47588571767424
H         6.95700977290601   16.17571390698626    6.74466665057607
C        17.48393761442289   15.28084033189102   -2.64081281679648
H        18.13408533980936   14.83763682445182   -3.37943179158921
C        16.31173151330631   15.39959736075347    5.80938884878780
C        14.41406718226346   19.87517534095944    3.25333025831821
H        13.71778723152588   20.69315017741103    3.43231522801233
C        17.93678228922048   13.63757738068874    5.64373011936665
H        18.48192418300163   12.92702337960490    5.04145458313047
C        12.63393408197389   15.50236491574171   -0.28495098810034
H        13.13032484914331   14.83647356778881    0.40921265361799
C         9.56935349589196   17.13500792609808    4.83275213828003
C        17.67781562322767   21.49798545756268    3.26838279416909
H        18.23184614209271   20.58579757070733    3.10069378617972
C        14.99932612513225   14.74623328646573    2.44826491133253
C         8.35151717923894   16.55007749818853    5.17225904369175
H         7.77046891943780   16.03771779178724    4.41718870392994
C        11.42718503019520   17.19063138841584   -2.10719259383026
H        10.96521150258882   17.84636289873690   -2.83068452330128
C        16.59867775440291   15.32736665805257   -0.41361425743785
H        16.56404964476086   14.91691728547486    0.58594662727785
C        14.48576793962638   19.05819554144693    6.04978496547146
H        13.44797341266361   18.80068756601990    5.88391419387555
C        14.91844218798614   18.96495282231407    0.17704106138392
C         9.92255945923561   14.33435073056188    3.20106217705384
H        10.39450149291376   14.43692373132852    4.17011755473785
C        12.53922999524226   17.62405817113464   -1.40412714149858
H        12.93513124683384   18.61207503030027   -1.59146754527310
C         9.58277974195514   13.09035129569158    2.70463833154560
H         9.79956916161782   12.20291776297169    3.27951727609097
C        11.52936763181190   15.07050459223776   -0.99286718154198
H        11.15351676037480   14.06892124906019   -0.84582983518968
C        16.53949594098139   15.47182968737060    7.18308285596100
H        15.99528947245676   16.18813022121538    7.78348407286305
C        17.42853825962087   14.75556318198747   -1.36190453365241
H        18.03414936172452   13.90216857365700   -1.09788535305595
C         9.92927709946458   18.65876591256280    0.91741398212684
H        10.76127815979336   18.06877321097465    0.55328429877443
C        10.91528917918206   15.92134323025658   -1.89836024089115
H        10.05062191721177   15.59007904186709   -2.45325087870234
C        16.70399658220949   16.37787842513401   -2.97466053474271
H        16.74370105695069   16.78699014363321   -3.97309475422021
C        16.19369480522645   19.45933898631557   -0.08356721996373
H        17.01961919595279   18.77660606088073   -0.22503512622713
C        17.00962958313018   14.47381170600521    5.04655912833794
H        16.84143562458805   14.41152155722057    3.98058866218353
C         7.79832202363814   20.14910496996174    1.88962630333702
H         6.97073020524545   20.73210733383026    2.26362707630077
C        13.01122052513694   14.74054112331169    5.63351031882504
H        13.35165555000465   14.28888532514123    4.70981726350129
C         8.67681033395401   14.12019555087543    0.72879694653902
H         8.18493169478864   14.03353362851390   -0.22794601698386
C         8.96035785436133   12.98397789716198    1.46951882724948
H         8.69237088224005   12.01141884756076    1.08617519438484
C         9.02217197040354   15.37111161360919    1.21044371229960
H         8.80553309820256   16.25885697467911    0.63316231607726
C        18.33728626750894   22.70207711525489    3.40743935224965
H        19.41403834982542   22.73019172914249    3.34783387026942
C        18.16598657967350   13.71781807363518    7.00580723778431
H        18.89089287612664   13.06778434573025    7.47131354079197
C        15.56651742031693   22.62431030031447    3.55841189267832
H        14.48916136990645   22.61163682896856    3.61638313959076
C        13.24351595720144   16.44646213391813    7.30493766836839
H        13.73965736925979   17.32180093484033    7.69931385688818
C        13.86728367807845   19.85948511581654    0.37497354613801
H        12.87777137844606   19.48578270561437    0.60535569539677
C         8.64914068355381   17.29375787706656    7.43446904490984
H         8.28848575458152   17.35548860123085    8.44959644442025
C        17.46520680360280   14.63557125445717    7.77408957515425
H        17.64233705538090   14.69918429749321    8.83729711639265
C        16.40913526749876   20.82457954784259   -0.15407312711735
H        17.40278628413069   21.19776033933331   -0.34827103016030
C        16.15410301031672   20.66370963200250    6.67513324359033
H        16.41689255241903   21.65837250596120    7.00137644931264
C        11.58105931983452   14.72894627420235    7.55552899544749
H        10.78205177280125   14.27896523448531    8.12507800032502
C        16.81071150085618   18.45050220656701    6.01365532311862
H        17.58990694041933   17.72513342290232    5.82764249642012
C        14.08613933715456   21.22185951073016    0.28702460819449
H        13.26228087890354   21.90695846363733    0.42852807874508
C         9.85881913438200   17.87756740971610    7.09468995855856
H        10.43896383792310   18.39786612907071    7.84109635097238
C        14.82330101838590   20.32474872117086    6.48912983046256
H        14.04746352244694   21.05285891436193    6.67832048055711
C        12.21633017913678   15.86407093424287    8.02773061005638
H        11.92162160124142   16.29119357300103    8.97479273671264
C         8.31977045929005   20.41131517080161    0.63239486856553
H         7.89592890765161   21.19967583810249    0.02961124726993
C        17.14392111956590   19.72476205317381    6.43843630504894
H        18.18168995611418   19.98460688577424    6.57861207321803
C        15.35857779612488   21.70761818454339    0.03050424017036
H        15.52988714588363   22.77199234402686   -0.02199101088832
C        16.23825372156326   23.82400745967865    3.69586072372330
H        15.67638498777366   24.73081917967539    3.86140690273043
C         9.38500311210250   19.66743349259463    0.14599089980118
H         9.79160388695351   19.87372742899783   -0.83246580792495
C        11.99064903663598   14.15853459485276    6.36101321652082
H        11.52619170574270   13.24782748913966    6.01053312820454
C        17.62089309478104   23.86963437231458    3.62253611549375
H        18.13657081700006   24.81073741060907    3.73176157804833
N        15.69104400524599   20.20400591851600    3.19968701844820
H        16.35811089673093   19.44293221469898    3.03639971508552

