47
CSD_code = KULKOR | q = 0 | S = 0 | Stoichiometry = C12H26B6RuS2 | MND = 10
Ru        0.85042737248962    2.33395973160128    2.69630430913924
S         3.12487532414398    2.85394797419228    3.27076452879319
S        -0.29336577393721    3.60772788933708    4.41609944703525
B         1.90770049869812    5.58876477388109    3.51450030267845
B         2.10837920500191    4.21448764530552    2.32736877979255
B         0.47733737913964    4.58264425269713    2.94531649428817
B         2.54057302708826    5.26414143455242    5.30117775166156
B         3.30708319107559    4.65062930670221    3.66463761201612
B         0.59828575826579    5.25200260611539    4.71815372592959
C         1.37543783051361    1.06319988782380    0.89998773317684
C         0.21526118580669    1.83321804992246    0.60106076305314
C        -0.94411186170925    1.72163286743012    1.42255369927437
C        -0.89135132439831    0.92795387014151    2.60427370543416
C         0.26056946119852    0.14325382747349    2.91035056061386
C         1.40843638590692    0.25831547884654    2.08072753197826
C         2.54405081224485    1.01895161091197   -0.05131056309911
C         0.18504831998768    2.71659575029183   -0.61834446535678
C        -2.24497460971604    2.36490567050972    1.01423577819747
C        -2.09843231675378    0.85979389179957    3.50291286505221
C         0.20518692764405   -0.87732763417326    4.02037441144687
C         2.66155372544681   -0.51028892653287    2.40920354508658
H         1.99785665731088    6.70139600568947    3.13869517064517
H         2.41516520796414    4.38067691530146    1.20006637589405
H        -0.32656319312272    5.08082430810940    2.23793989734928
H         2.87307855478325    6.31288282043877    5.72298364237997
H         4.41675453234386    5.00522285949608    3.51213480056000
H        -0.16215256782759    6.10651462555710    5.00275511875931
H         3.06584473264964    4.35010277220978    5.84550662877238
H         1.32559207759746    5.03711803746351    5.76398043225850
H         2.96260685078171    0.01547563428931   -0.08781869246891
H         3.33236119710629    1.70380815364234    0.26571267522343
H         2.24034021922586    1.28794856238107   -1.05870022275669
H         1.17532685872429    3.10346263502480   -0.84063603157407
H        -0.17693526043031    2.16227552664409   -1.48657712425118
H        -0.46332248009203    3.57282041169474   -0.45489865156514
H        -3.08462931491910    1.73679366215756    1.30325163237090
H        -2.28830198794484    2.50118911813806   -0.06269834417907
H        -2.37044704079707    3.33908795954371    1.48851917237687
H        -2.78441313924729    0.07934852765227    3.16720776400894
H        -2.62485347435008    1.81074331679912    3.50880520798991
H        -1.80401722100827    0.65049755546300    4.52746984172554
H         0.87950535880525   -1.70446655290478    3.81452314858968
H         0.48023751825025   -0.44218293042323    4.98102831012945
H        -0.79972121294919   -1.28444501582442    4.10699641473418
H         2.73393131414545   -0.69524508462866    3.47693480921034
H         2.67499662196437   -1.46773386874674    1.88467260111265
H         3.54178867289671    0.05927408600416    2.12199690651264

