48
CSD_code = KULQOZ | q = 1 | S = 0 | Stoichiometry = C13H28Cl2MnN4(1+) | MND = 6
Mn        0.53048368253998    7.34674604117441    3.49539027469865
Cl        0.03481487354727    6.14547794868868    1.82602706552501
Cl        0.03899724996415    5.96109218613819    5.00255347527279
N         1.13034023451874    8.94729483633052    2.27805399385807
C         2.01150798798870    8.34878306679184    1.25417051678377
H         2.56839126442396    9.12801468743709    0.72036741739364
H         1.38203081505650    7.83501258031619    0.52677616761694
C         2.98954983613359    7.30786912510854    1.86204765965929
H         2.98142860367643    6.43805783236199    1.20428794221641
H         4.01335635243469    7.69666001705604    1.86855382955431
N         2.61570613771522    6.85979333329239    3.22458965926858
C         2.87959995841685    5.42194910719009    3.36516587788505
H         3.92956374409237    5.18948564594378    3.16163640776323
H         2.25270148775020    4.86184414292854    2.67356744855025
H         2.63472006627138    5.10620471449384    4.37788178071299
C         3.38011479053514    7.59321962521162    4.26024954474590
H         3.82550491011966    8.49122342996398    3.83226819653955
H         4.20217793219687    6.97201043579518    4.63141060278460
C         2.49219486241878    7.97632726167389    5.44121861030284
H         3.07030156109493    8.57971536289274    6.15406993592504
H         2.16047527440807    7.06771372793741    5.94987920927409
N         1.28922361298091    8.71204284721913    4.99749153313327
C         0.40130147780804    8.88362691987211    6.16874069007053
H         0.90111216800874    9.52596325999958    6.90622566647524
H         0.25190676322297    7.89789472895946    6.61393239602220
C        -0.97561687132353    9.47324777118222    5.86281014631708
H        -1.49842153402503    9.53504211535056    6.81949036037094
H        -0.90290178334342   10.49988339721543    5.50018103876908
C        -1.87063054861933    8.63340012771858    4.95061853124154
H        -2.03139622298031    7.66535889154791    5.43037748355101
H        -2.84013469770939    9.14591958696141    4.88501059742445
N        -1.39271400969488    8.34706799245217    3.58039740429190
C        -2.45183097329573    7.54322818693924    2.94801521221887
H        -3.42139512493837    8.04478567920518    3.03161900236123
H        -2.51664063029126    6.57299635293806    3.43819651896917
H        -2.23199962011677    7.38181402412392    1.89622879471582
C        -1.20436160899562    9.59103504753876    2.79778724547370
H        -2.15069860429990    9.89293313212451    2.33377490016410
H        -0.89315749022609   10.39455272997550    3.46263007144927
C        -0.15029848936108    9.40752074696462    1.70140210241024
H        -0.49870269948790    8.64679452515726    0.99899811343721
H        -0.02029532421893   10.34881348179609    1.15205129173625
C         1.84981259745739   10.04974120226589    2.94849153726466
H         1.51439033582539   11.01433061248129    2.55008476286919
H         2.91089746375542    9.96770313397551    2.71165757945085
C         1.66369185442668   10.04111925818216    4.47566739040493
H         2.58541448111775   10.39002123883572    4.95703662524115
H         0.88608385302130   10.75416790029146    4.74291738783494

