65
CSD_code = KULRUF | q = 0 | S = 0 | Stoichiometry = C26H30N4NiO4 | MND = 6
Ni        6.06408897672677    3.86828562317790    4.45669236282805
O         4.99594029216123    3.92139687527444    6.04774814477260
O         4.66047111397787    5.14973950349789    4.29530989216150
N         4.77191418941656    2.26430837640402    3.34081712385268
N         2.69154934541479    1.67739694061494    2.94746163093167
H         1.75430891895662    1.34288843294367    3.10054635051572
C         4.49969015591699    4.96022942811545    5.52971413809882
C         3.71236169860483    5.92238377843293    6.35360406581117
C         4.26910344122845    7.13238090858003    6.75761397205140
C         3.49288100144413    7.99288248562568    7.52513695128159
H         3.91789541017866    8.93374677348359    7.84689168160766
C         2.19282144822276    7.67549323657753    7.88557997112845
C         1.66033369268374    6.46337020086145    7.46610538176356
H         0.64641555504079    6.20411695751238    7.73852369482320
C         2.40621051697015    5.57892246604379    6.70484662246551
C         5.67278302711880    7.51892406354203    6.40378264239898
H         5.67140569200005    8.45772504513409    5.85020762655524
H         6.17099019616047    6.76510957054515    5.79876627726971
H         6.25771730169289    7.67084046653834    7.31097254476326
C         1.37595538080845    8.63649525113272    8.69700784568061
H         1.96966094715685    9.05872003546497    9.50542332912091
H         0.50286041524906    8.14590970143163    9.12032551594374
H         1.03464606326486    9.45958997684941    8.06859665005700
C         1.83531400314287    4.26938366394341    6.24718509792924
H         1.89401045860731    4.19471187274201    5.16117151660975
H         0.79668306439601    4.16822279943159    6.55458930145955
H         2.41216004176270    3.44654985283092    6.66832525222003
C         3.67887411763180    1.77003068463311    3.86484721899386
H         3.56776254276790    1.46763904854612    4.88745673326003
C         3.19592218248595    2.14843194664836    1.76780392774676
H         2.61123821312228    2.19071056128883    0.87246176238250
C         4.48513758866234    2.50636928683716    2.02876594878604
H         5.22456476102305    2.92862682243488    1.37877417432031
O         7.04897313354949    4.34693065195181    2.86876557594495
O         7.74777304268934    5.62503494948569    4.51917896507653
N         7.44751942328508    2.72096666021874    5.00104962878419
N         9.19337685677707    1.41067107890045    4.91986338844992
H         9.85863545143346    0.73360404741590    4.58361237541717
C         7.71853452407218    5.33073398768314    3.31704205595537
C         8.50664625632765    6.11867946654345    2.30982556785136
C         7.91096578241015    7.20758721099940    1.67821614577524
C         8.65368945983112    7.92613136529971    0.75305070517051
H         8.20232124726393    8.77328954553520    0.25476870654988
C         9.96427910425957    7.58058836201343    0.45228896973413
C        10.53459188502272    6.49202057144966    1.09602133143896
H        11.55498907313634    6.21371717661681    0.86939280308967
C         9.81807439292714    5.75178184294151    2.02484682091430
C         6.50650370117330    7.59676921765033    2.02340630375751
H         6.49996949291219    8.14059906689368    2.96850528802173
H         5.88183099328148    6.71505080408570    2.15416316195984
H         6.07568931952314    8.23404695279484    1.25403299850010
C        10.74851650320841    8.38779989497927   -0.53991898798443
H        10.14550118235089    8.60877219025078   -1.41869230451917
H        11.64470946495477    7.85749910093507   -0.85286689497029
H        11.05039661120552    9.33654876881823   -0.09530849341028
C        10.42257950968654    4.56673000667456    2.71865034753726
H        10.33549117454467    4.68405400715712    3.79821296837437
H        11.47169022379209    4.45135223528481    2.45496214577640
H         9.88353958924620    3.66089192716966    2.43951908987830
C         8.07972532831985    1.82211051584165    4.28436913260033
H         7.75668089669054    1.46683321060391    3.32610758384323
C         9.26807375670942    2.09290171933413    6.10023144234685
H        10.06959883036659    1.95271676762659    6.79501869833840
C         8.17439983946191    2.90496393534437    6.13865760063017
H         7.86706219561863    3.60439012441453    6.89117152962405

