48
CSD_code = KULRAM | q = 1 | S = 0 | Stoichiometry = C13H28Cl2CoN4(1+) | MND = 6
Cl        7.29538742957699    6.40842226048395    6.04591382792087
Cl        9.81901303640200    5.55433116603619    4.58566963055593
Co        7.72995154721384    5.09363727982687    4.37099501981576
N         5.80790158715391    4.61979436543822    4.11945546523675
C         5.27496355091468    4.27253948276061    5.44697294511111
H         4.34767218463064    3.69712749860510    5.35640901174068
H         5.04202878979565    5.19928078051883    5.96892568395955
C         6.32421227489584    3.50502838240367    6.28147078013101
H         6.02692859442242    2.46293263497156    6.43162934044030
H         6.36763406938776    3.97627117545876    7.26301069273664
N         7.68684054193941    3.54657504389343    5.69093741023965
C         8.66915191003080    3.64081094854337    6.78420577220273
H         8.52089089616746    2.82519165028558    7.49635016042098
H         8.56256222194656    4.59070199856080    7.30242536591507
H         9.67808983664620    3.58789107357297    6.38259689486021
C         7.97123309740700    2.30814013076438    4.92835947425019
H         8.52629920885816    1.60154710916877    5.55260463262421
H         7.04137621782735    1.82202947435756    4.63695883142105
C         8.79005510483426    2.64071052228992    3.69309115565178
H         9.76810195700223    3.01755375665499    3.99758579787971
H         8.93836053798784    1.74253718442914    3.08069482466694
N         8.12238684841294    3.69860537226453    2.91398228332141
C         9.04840441671599    4.10718260391612    1.84124860075928
H         9.99834035843121    4.36059192043513    2.31419631837911
H         9.20982911245154    3.25978975038975    1.16333802840337
C         8.59346863248656    5.31692711836126    1.03501878310054
H         7.68582099666054    5.11334464260149    0.46432808858275
H         9.37232671013415    5.51226879259962    0.29564656199597
C         8.45705080735402    6.59185223675232    1.85935433901517
H         9.43029018859072    6.81810869705525    2.29830267184508
H         8.19365579381746    7.40442956558100    1.17114734038414
N         7.48202529860297    6.59644514364694    2.97400587795500
C         7.59079874110984    7.94982961967106    3.55408759163245
H         8.55119323310436    8.06193772434042    4.05197590415455
H         6.80660684127887    8.12655578751835    4.28301416748406
H         7.51218510440864    8.70358325198020    2.76615511444257
C         6.09781811329967    6.41257692437456    2.47878485012384
H         6.10007233817845    5.72558358158678    1.63481976495902
H         5.69362881945664    7.36848242700473    2.12857518017566
C         5.21025506558997    5.85537579994801    3.58742482431776
H         5.15436875870456    6.58066241162070    4.40018934788822
H         4.19539387342738    5.67837146375463    3.21193819886579
C         5.62753046005222    3.48413460458266    3.19296417065094
H         5.37785539842536    2.59894604669393    3.77755657772981
H         4.76993358245776    3.67444991492235    2.53838308879524
C         6.86491221797579    3.19666312195106    2.32667900809055
H         6.73050692447597    3.65756350528601    1.35050383205037
H         6.94068676935539    2.11728405213651    2.15121676711631

