83
CSD_code = KULTAO | q = 0 | S = 0 | Stoichiometry = C42H22F6FeN10S2 | MND = 6
C        13.90504172394232    4.13057966121052    9.23932142312501
H        14.82287563838022    4.04796368441875    8.67592044467330
C        13.83508897789809    4.94679970394763   10.36152398660647
H        14.70807426779177    5.50330591030328   10.66432490651234
C        12.66115081281077    5.02563694502396   11.08744743656102
H        12.56488261371724    5.62851283946136   11.97553412157989
C        11.56997259883525    4.27719407049308   10.64213518795552
N        12.88508683043974    3.40322283677543    8.79843311332763
C        11.72325591828588    3.48539724182290    9.48645412028343
Fe       12.81310783429527    2.10793795992643    7.42235115038597
S        11.66989217076638   -0.48158584764474   10.85212710038568
N        10.94609562191792    2.04840324723776    7.81376729948190
N        12.98925250942883    0.76678286727747    8.77609064901281
F        10.28691089665648    4.17906532798921   14.93350183235890
C         9.27002266552897    3.39199000749407   10.77985148965565
N         9.86730426106739    4.86787817428687   12.37655962630978
N         8.22176879467175    3.57860848266585   11.63188774846243
C         9.39965098506468    2.61161321819663    9.60134405205894
C        10.65609609008431    2.70245331813369    8.95892555432870
C         8.74943349991682    1.11880825690552    7.85566224075068
H         8.03458055585863    0.46320368319438    7.38467584540733
C         8.43121343484398    1.78296808433656    9.02322355527447
H         7.46306982574510    1.65878029774753    9.48447887457117
C         8.26543375475112    5.43052228465738   14.86774458871731
C        10.29318330413691    4.21517739657255   11.27055218194633
C        12.40412599418376    0.23137060658756    9.64640798526508
C         7.39779316217429    5.93752958767563   15.82518654599751
H         7.79180677891894    6.29846620649191   16.76239813450548
F        10.46384241348626    6.30348933243470   14.56290408348727
F         9.95803671206595    5.58452070213225   16.50934042103473
C         6.38768332228203    5.00187967464155   13.43177898145749
H         5.98507686076570    4.66523872304703   12.48806797800213
C         8.63674624231576    4.47272476695978   12.58826182319292
C        10.00716538338448    1.28189319606979    7.28173541290709
H        10.28619304544336    0.76596595620553    6.37595647308670
C         7.76744704418974    4.95986763618285   13.64376563739223
C         5.53037520101218    5.50054117559404   14.39246718662834
H         4.46810551069300    5.52508246798330   14.20250663269145
C         6.03457057150312    5.97545734784577   15.59111170806618
H         5.37190051842024    6.37285039744746   16.34347691531243
C         9.73759314702257    5.37225696548899   15.19573800468783
H         7.34966064032232    3.07680075034716   11.61944976757812
C        11.71903142763968    4.13032862456046    5.60691150394190
H        10.80168244821208    4.04716944293402    6.17101171796720
C        11.78792894224556    4.94717208690466    4.48515152624159
H        10.91480113968518    5.50430113408381    4.18392520559628
C        12.96081188449332    5.02566370948431    3.75742543682761
H        13.05604619085000    5.62946428282455    2.86985984430429
C        14.05240778522737    4.27666413215205    4.20078600939505
N        12.73938643866426    3.40245041337017    6.04614109031883
C        13.90040072725350    3.48485780252945    5.35669444522498
S        13.95188900706583   -0.48364055334842    3.99151582535702
N        14.68002067219958    2.05045178326241    7.03051287205790
N        12.63804420228691    0.76532382898710    6.07061310395363
F        15.33702255365075    4.18010465588438   -0.09518150497829
C        16.35224604725423    3.39182537461384    4.06144464555990
N        15.75392297381144    4.86709248018264    2.46453094727372
N        17.39989025889878    3.57812881196632    3.20875913188987
C        16.22433086535739    2.61252908885780    5.24079423076653
C        14.96837377713896    2.70298131042096    5.88405275417908
C        16.87797285883135    1.12393602401661    6.98869337883478
H        17.59425213609489    0.47051445435288    7.46053518100760
C        17.19428354629570    1.78608545198148    5.81947586058008
H        18.16220731027311    1.66236025130242    5.35763969705223
C        17.35877762939168    5.43079407384325   -0.02662132435342
C        15.32860601911469    4.21461560030964    3.57098167203974
C        13.22030062765840    0.22813809735087    5.19950337862668
C        18.22800082006770    5.93776218040066   -0.98266216756365
H        17.83544924659411    6.29930187831405   -1.92025368096174
F        15.16038185637646    6.30441837063629    0.27577521193480
F        15.66832377213558    5.58585749945208   -1.67034219131201
C        19.23439937382576    4.99975002659796    1.41126533676779
H        19.63571003704619    4.66265708130300    2.35536390198416
C        16.98449135839398    4.47205247270160    2.25242696852683
C        15.62047437170885    1.28637415992049    7.56332296066095
H        15.34298182775549    0.77200160335832    8.47044618086525
C        17.85479606458113    4.95909948542323    1.19770931057776
C        20.09337471823452    5.49760666558634    0.45169167575315
H        21.15536378518977    5.52158462423643    0.64326590766573
C        19.59102751402625    5.97386309351133   -0.74719555109556
H        20.25493287871645    6.37157763287305   -1.49828384228372
C        15.88704518503799    5.37318266729490   -0.35652368937978
H        18.27234158575385    3.07694305008895    3.22144481719146

