60
CSD_code = KULXEU | q = 0 | S = 0 | Stoichiometry = C27H27NOPRhS2 | MND = 4
Rh        2.51813719194271    2.07867927605678    0.08522276658458
P         4.68857193334696    1.46093356606355    0.02113490819367
S         3.07706783557875    3.51813123432466    1.72992209919380
S         2.02179987853973    5.33175593810878    3.80935122640729
C         5.84379773245356    2.08950003366872    1.28465864246805
O         2.15397212356591   -0.26658872806013   -1.72911051325747
C        -0.09822608698632    3.37098850770812    0.96518958390211
C         5.58728546961981    1.89987666498617   -1.49997398833134
N         0.55888217565458    2.73075872911255    0.02927557115638
C         2.22469421788877    0.68770777090947   -1.08492849643787
C         4.85476773393324    2.38808471797233   -2.57547176575195
C         4.89200679377613   -0.34466001503870    0.17214235799936
C         6.22291642146905    3.42650186524724    1.18398214624545
C         0.41030886381465    4.05792676824562    2.09175005446534
C         4.04289505917578   -0.95217425069644    1.09593808045434
C         1.72102082719317    4.24012105393882    2.44982392634435
C         3.82116004441147    5.25396015620439    4.00212753009060
C         6.25691711881473    1.33940526348128    2.37804031503021
C         7.01820243414160    3.99946856429932    2.15660215425594
C         5.77610704096362   -1.12283127037608   -0.56139546774642
C        -0.24597781622326    2.32117469751080   -1.11932831770321
C        -1.60229336641810    3.55802628893355    0.94191221135402
C         7.43636337491770    3.24478532596200    3.24172089502838
C         5.49173720030341    2.73297582587255   -3.75392768517841
C         7.05688433533119    1.91768393821489    3.34886900861711
C         6.97099298875599    1.78536748171712   -1.60293832856237
C         7.60430925557174    2.13009236781595   -2.78282961617728
C         5.81994123640836   -2.49202075138345   -0.35660207092867
C         4.98944438182482   -3.08799856928267    0.57698850493859
C         6.86633732280851    2.59713562305622   -3.85955513802631
C         4.09602268681322   -2.31627627922935    1.30441781309940
C        -1.95959060033593    3.97576892572662    2.36717899184473
C        -0.71474194495034    4.70797924874325    2.85985743835502
H         3.77883929793931    2.50502892925825   -2.46244943102751
H         5.88027247438373    4.00879273167443    0.33830464054055
H         3.33165305578914   -0.32957108794165    1.63613617152940
H         5.95532302139423    0.30525119384152    2.46954584706382
H         7.30879089747656    5.03694480526611    2.07544094399119
H         6.41821694826931   -0.66713059519666   -1.30100707731375
H         0.39671458766351    2.07596605581861   -1.96267737524302
H        -0.91564355678041    3.12661224596644   -1.43336947495924
H        -0.85225007369660    1.44101252755262   -0.87939211615317
H        -2.12692487266142    2.65269770918556    0.63624722106948
H        -1.85517795464505    4.35410655803316    0.23449325337001
H         8.05430874326086    3.69357251699348    4.00563211509790
H         4.91986692751019    3.11169829142760   -4.58833295959618
H         7.38015129669858    1.33006780374775    4.19608721967203
H         7.54593153703170    1.44048917409449   -0.75375662786786
H         8.67784562643593    2.03850937700931   -2.86355679087162
H         6.50436225392640   -3.09692672359694   -0.93354850837038
H         5.02918989165483   -4.15635712853574    0.73053745006652
H         7.36636045647670    2.86527211773304   -4.77858237153519
H         3.43832406449466   -2.78200131523741    2.02375524796014
H        -2.12909838566126    3.08651128143975    2.97660805110524
H        -2.85541299011906    4.59373575659534    2.40722269999786
H        -0.76027094111504    5.77501799592078    2.62178422433245
H        -0.57028010209272    4.61932468670024    3.93733282891100
H         4.05748790290060    5.88677376324368    4.85179955918653
H         4.30041162162052    5.62511366648245    3.10126450256791
H         4.12429440775371    4.22794769269385    4.18923591856417

