44
CSD_code = KULYIA | q = 0 | S = 0 | Stoichiometry = C14H24CuIN4 | MND = 3
C         0.54405455091114   -0.66635122012075    2.18899264173043
C         2.63220759561770   -0.89624805964664    1.42892250423066
H         3.69551046877682   -0.78047274143128    1.41123626663483
C         1.81215458502670   -1.53560577584766    0.56403920937074
H         2.02623235392861   -2.07333118100415   -0.33681335570097
C         2.32498203115514    0.43234185034519    3.52132218493517
H         1.44602866669051    0.67724760352349    4.12650622385735
C         2.93780662872317    1.73052266279189    3.00406747458351
H         3.80662973830342    1.53298648040939    2.38014426765795
H         3.24225360924929    2.35087238547065    3.84187228270421
H         2.20232047832369    2.28240126933280    2.42480900973775
C         3.31197725373340   -0.36705223424839    4.36884336419015
H         2.86784868219289   -1.30852019675072    4.68723367129025
H         3.58058625709313    0.20451596175588    5.25280719199995
H         4.22058932151355   -0.58240463092016    3.81071510220281
C        -0.63656483910968   -1.90013987095431    0.40102975651570
H        -0.49557973958679   -2.94989352963723    0.13740813624583
H        -0.85949894399752   -1.33457803599146   -0.50701125942673
H        -1.47767457266150   -1.80665368542950    1.08799366026141
Cu       -1.01080236006550    0.05249488086588    3.10563902374224
I        -1.01093872754655    2.58129646563670    3.10539850793353
N         0.53761173702475   -1.38554305326231    1.04405089057397
N         1.84263623656189   -0.36987478652327    2.41473781259818
C        -2.56566819508546   -0.66629439210146    4.02231543155420
C        -4.65377753423099   -0.89617977944726    4.78249862998931
H        -5.71707931692868   -0.78041371417566    4.80023471823859
C        -3.83368020075889   -1.53555004385895    5.64732983971327
H        -4.04771037213208   -2.07327759350390    6.54819094674721
C        -4.34669354665523    0.43235817452870    2.69005058847676
H        -3.46778474174926    0.67728336356953    2.08480622561902
C        -4.95948707184179    1.73052785633796    3.20736620059006
H        -5.82826943252345    1.53302817905010    3.83136228201745
H        -5.26398156330383    2.35087878990487    2.36958154065883
H        -4.22394450644007    2.28240357327858    3.78655543053180
C        -5.33376908273618   -0.36698670796481    1.84257962110604
H        -4.88962764581071   -1.30843525525591    1.52415745491152
H        -5.60246193484972    0.20457626224039    0.95863243962068
H        -6.24232927238237   -0.58238496071101    2.40077816611060
C        -1.38494568174228   -1.90014495940938    5.81015401541157
H        -1.52590771559903   -2.94989933798267    6.07376334796099
H        -1.16196302872673   -1.33459762732382    6.71818603942462
H        -0.54385996432998   -1.80664337128411    5.12315838167301
N        -2.55916698055976   -1.38551931806065    5.16723218617515
N        -3.86426322350729   -0.36983969620558    3.79662194557845

