61
CSD_code = KUMBEB | q = 0 | S = 0 | Stoichiometry = C20H32Cl2N2O2Si2Zr | MND = 6
Zr       -2.06286733010682    4.82703457941007   11.85995465681064
Cl       -3.33153575651334    3.72063341055866   10.16624821633624
Cl       -3.71283608040315    6.51009995542859   11.97480097778957
Si       -0.27519824006483    7.35875309332141   12.05968692158292
Si        0.92579518838195    4.73411541052039   13.16581524808549
O        -0.79227266424068    5.28447234071527    9.88879646555142
O        -0.88327848630558    2.83865662044964   11.81396471153197
N        -0.32087519486341    5.72250740800886   12.56003100738284
N        -2.87077193793450    4.04731293296967   13.51357599870800
C        -0.42132717375979    4.52682733012005    8.74030184746307
H        -0.13467920899174    5.19286992395189    7.92034894036852
H        -1.23966753320226    3.87343332520198    8.41605649140854
H         0.44538369521226    3.92912348967400    9.03041320361223
C        -1.54154638434622    6.44310935003251    9.61570166249412
C        -2.41905569283673    6.51517965732198    8.54062490147043
H        -2.58799775934654    5.66001497426503    7.90329894931752
C        -3.11353361798866    7.69189279610781    8.30755257248758
H        -3.80780165071126    7.74243580487719    7.48276951299325
C        -2.91860995994294    8.78647280474990    9.12985630775664
H        -3.45478665617279    9.70481082681499    8.94499706225304
C        -2.05407245255606    8.69104844950717   10.20632790499265
H        -1.92458207703871    9.53837867866085   10.86139772750550
C        -1.35570116355146    7.52259282288917   10.48212387415927
C        -1.03579641141780    8.48029749226443   13.41303747008607
H        -2.09667326539068    8.27377907459179   13.53052841977062
H        -0.92051998353595    9.53445654874936   13.18398010971923
H        -0.55083917312106    8.29924151236075   14.36722734843700
C         1.45053630466530    8.02870235356673   11.57202588814133
H         2.08145502349693    8.09628892975583   12.44962726996640
H         1.38382267293417    9.01924762041550   11.13550492875491
H         1.94823991058802    7.38241038273228   10.85699479230127
C         2.00773802629240    5.56979758745378   14.49768101461597
H         2.57182872002418    6.38150077017126   14.05471204211583
H         2.71916180350309    4.87780281216661   14.93440419320887
H         1.40846473321975    5.98971168850420   15.29809548473128
C         2.12971247532385    4.04381248583901   11.83009476112877
H         1.60834910157253    3.48723467275234   11.05641596677313
H         2.86918037404402    3.38132000748974   12.26942280043336
H         2.66523927465200    4.85580077878211   11.34945156198399
C         0.05500849443644    3.23540196478294   13.95916148406002
C         0.18782162179590    2.88149253123771   15.29365758420306
H         0.83460108092266    3.47006598658196   15.92543945292994
C        -0.47696674333398    1.78894298091523   15.82464766848019
H        -0.35704463672035    1.53243690072063   16.86660604412684
C        -1.29447496880054    1.02457097164627   15.01150479276202
H        -1.81762940738888    0.16961643199780   15.41304575304755
C        -1.44669519197547    1.34962431191946   13.67377372593776
H        -2.10145928723203    0.75515674789331   13.05512645023228
C        -0.78974041032904    2.46277435805979   13.16367456705482
C        -1.08241086208015    1.74314638222709   10.91747661732655
H        -0.44038306669845    0.90362261437373   11.20476451633649
H        -0.80908942464168    2.08772297147658    9.92038594510712
H        -2.12962316070180    1.42715095145476   10.89216945201004
C        -4.19232174546381    3.46071776813014   13.42998598457601
H        -4.42831635975547    2.90539350651739   14.35320313474902
H        -4.23708505675224    2.75905718933475   12.58884212836097
H        -4.97692065863786    4.23080144479419   13.28942986795639
C        -2.76695392450089    4.91628610490129   14.66952165916597
H        -3.52300978292694    5.72523466730315   14.64237255291703
H        -1.76685503766371    5.36512245436440   14.69587471639398
H        -2.92183292112236    4.34108005621484   15.59828668802698

