108
CSD_code = KUMDAY | q = 0 | S = 0 | Stoichiometry = C48H47BN6P2RuS3 | MND = 6
Ru       12.66931328708763    9.60833016170715   12.94487578823109
H        14.07873921988062    9.74389053793523   13.49040607920352
H        11.07533648064164    9.09709508306561   12.18986178938294
S        13.32209966087840   10.13441071308111   10.58255141292050
S        13.41825584324562    7.33415478070009   12.47209580608001
S         7.82178749881168   10.58770092694691   11.30611097296592
P        11.88185341947526    8.98308857074013   14.98493015201217
P        12.52399274736447   11.88940433004822   13.12709935532688
N        11.29437328051943    7.31103100689943   10.74307824465229
N        12.75007368032292    5.68366172400219   10.49669793924287
N        11.73065152836549   10.84851705454058    8.55537768662479
N        10.70256757484303    9.56535089773118   10.00675724211900
N         9.11158663989552    8.19568582328069   11.50704391813338
N         7.02654593243039    8.22357825647147   12.22700437088336
C        12.44853230842263    6.79483993725099   11.21721223699549
C        11.77505520041088    5.50952746762239    9.54703232122140
H        11.80003135105277    4.69850833455253    8.84900389970209
C        10.88636684891932    6.51555047261199    9.69681062727966
H         9.99370161624935    6.73681876025388    9.14875178443578
C        13.90301560526580    4.86628991266205   10.73111925933206
H        14.76653338913765    5.51155258321146   10.89994261110761
H        14.07558902618233    4.22578993952894    9.86890067706964
H        13.76072185119499    4.25415838684801   11.62507629494297
C        11.86642099556761   10.19061090945970    9.72898761259620
C         9.83387669792126    9.83004638190466    8.98179414490763
H         8.83457363541639    9.44941320761367    8.98227273751277
C        10.45836520361274   10.62946251853476    8.08859833924220
H        10.10997359322298   11.06108357674561    7.17386272880025
C        12.74784538754480   11.63130965611277    7.91897571528379
H        12.31755972933179   12.55908594684147    7.54384912936996
H        13.19910442672928   11.07780708107721    7.09208104794771
H        13.51779773232226   11.85489364732567    8.65691703610637
C         8.02065203378072    8.98886209036518   11.69104364961566
C         7.49892668458467    6.94677749506255   12.38832024309197
H         6.89320510473796    6.16532096130721   12.79816381544250
C         8.77280606490719    6.93180645599477   11.94748240012267
H         9.46472271977326    6.11663989400909   11.90848678144678
C         5.72133182503221    8.69427344996252   12.58204977345115
H         5.56818133755179    8.61401336910149   13.65991763199774
H         4.95364279948298    8.11758187775010   12.06279729300572
H         5.65484105652211    9.74117369115592   12.28335545482112
C        12.69898344486656    9.47645531762717   16.54582842840954
C        12.03278822565669    9.77813008811886   17.72657042656342
H        10.95337697055991    9.78063614703635   17.76166152311147
C        12.75438478555372   10.10239010623150   18.86304837149685
H        12.22986577603804   10.33630681831259   19.77897497823200
C        14.13800975929024   10.13320498474191   18.83157240042864
H        14.69385260701371   10.38765976829745   19.72250509801476
C        14.80718457622048    9.85033740887339   17.65110008764500
H        15.88647103073741    9.88778593250163   17.61736071035331
C        14.09130502489581    9.52703599613400   16.51424695677709
H        14.59251209937590    9.33606985213685   15.57224641373493
C        10.10659541539324    9.24622477929132   15.35048544280131
C         9.42851357839925    8.51224349940618   16.32264124720797
H         9.95406193427957    7.75565513947877   16.89016949068521
C         8.08450893615917    8.74105992410643   16.54968402567537
H         7.56408642754000    8.16967079686796   17.30587309498274
C         7.40263570149676    9.69835056464899   15.81328274813958
H         6.35334783063206    9.87710718655814   16.00276114616364
C         8.06569532281300   10.42043845120845   14.83660200169864
H         7.54073368266186   11.15588510553238   14.24545071916633
C         9.40881965591743   10.18604168482436   14.60568510066718
H         9.93359836346197   10.73241713250284   13.83153670704667
C        11.93458889287423    7.15997614630061   15.18695001917192
C        10.93829086084424    6.41250018563243   14.56246954096725
H        10.11476113865710    6.92581995573776   14.08124284544420
C        10.99657514599502    5.03297421443505   14.55137083802237
H        10.21618318404401    4.46404820536754   14.06330805964073
C        12.05523619484378    4.38009632560751   15.16261437978797
H        12.10462702822374    3.30052993577030   15.15150505644634
C        13.04983003003444    5.11625279170804   15.78329965367098
H        13.87849836051088    4.61022850233438   16.25753102870222
C        12.99609349932933    6.49902638118145   15.79333358843470
H        13.78350178780285    7.06687327926631   16.26714497444833
C        11.61526284662170   12.65554018060924   14.51762382935701
C        12.19002910082800   12.47488698136803   15.77344388539627
H        13.14698578508179   11.97317730802322   15.83687801052133
C        11.55871692238493   12.94694385449223   16.90705707340063
H        12.01762056313560   12.80833475807465   17.87523765281348
C        10.33769616517142   13.59416690239036   16.79867092548591
H         9.83657365840167   13.95724120909755   17.68438086948921
C         9.76490979837997   13.78187531840448   15.55264676998351
H         8.81745708920346   14.29428627542591   15.46492365647608
C        10.39912426242106   13.31937126591967   14.41229513519550
H         9.94436275159552   13.48107248935281   13.44541215766916
C        14.12762249435991   12.75811843715984   13.31022998650856
C        14.21071093652168   14.01708107076291   13.90096046712165
H        13.32306798136190   14.48654358249662   14.30176098883465
C        15.42637447242416   14.67200386114712   13.97395132338313
H        15.48271766121511   15.64522192685679   14.44086397915981
C        16.56719400446305   14.08826936286383   13.44711114226585
H        17.51522378238007   14.60339173055650   13.50764765780297
C        16.48656759807317   12.84684127702548   12.83898540627604
H        17.37126261832586   12.39157535663888   12.41781749307465
C        15.27321169100065   12.18586374213981   12.76978418887894
H        15.20452538768231   11.21241967784870   12.30063578996327
C        11.86367564202467   12.82276632926190   11.69283168345370
C        10.57679488454569   12.50754044665266   11.26838717838474
H        10.01191420565918   11.74184575657255   11.78404162601685
C        10.00634221161634   13.15045628191944   10.18664519178818
H         9.00088974753298   12.89099911868150    9.88933710083145
C        10.72866451938087   14.11075460624463    9.49857721145244
H        10.28825842144872   14.61888620490276    8.65199654851136
C        12.02045866624574   14.41353496190209    9.89712403475284
H        12.59323864174793   15.15466707615566    9.35681216771225
C        12.58990727644792   13.77490502481011   10.98518089175025
H        13.60044794029656   14.01801694270358   11.27866719432298
B        10.55432198153140    8.59167020175772   11.18252767352718

