55
CSD_code = KUMDUS | q = 0 | S = 0 | Stoichiometry = C24H27ClNORh | MND = 8
Rh        5.86449135105961    8.75289456587099    7.47309463002326
Cl        4.27586873108474    9.37188131196514    9.02432749838167
N         4.43144834871401    7.93302610639476    6.31392806933129
C         5.68517066488182    6.92723952260731    8.28329908781999
C         6.26911482039046    6.47711429390882    9.47536949506327
C         6.02386786409947    5.18536006344973    9.92212398194424
H         6.48426436966079    4.82154100578054   10.82797361467683
C         5.17104597227376    4.33616324236220    9.22031604316587
H         5.00009553767955    3.33811723672596    9.59583318275270
C         4.53422620404881    4.76946305727421    8.08407952031066
H         3.83752714610167    4.13669023385237    7.55500671943263
C         4.78473079579556    6.07052608709198    7.62635998694114
C         4.11275785625831    6.69977909375935    6.53896027563981
H         3.32562882599366    6.20694413065154    5.97316378046287
C         3.80750727321266    8.67045481076678    5.30262837712416
C         3.69967311824858    8.16418210886031    4.00800305665894
H         4.11008079505807    7.19005098894584    3.78089684566328
C         3.09743025220144    8.92174193184668    3.02008591582457
H         3.02548711485420    8.52977805584688    2.01602725933699
C         2.58811091061317   10.17556019073865    3.31431452137266
H         2.11590394382160   10.76113029057466    2.53985994161009
C         2.68781930072358   10.67673769027618    4.60340544663439
H         2.28497396954901   11.65156060996496    4.83529298234819
C         3.30037105249400    9.93667932650346    5.59552337891315
H         3.38067481390224   10.30883542658176    6.60820246613734
C         7.52984634140617    9.04446278737569    6.09125216985303
C         8.07762630750643    8.93154435328676    7.40913821173103
C         7.52319309103226    9.98723707898736    8.18788235025607
C         6.76848009923371   10.85397873881753    7.29476602181261
C         6.79135859959823   10.29148846724582    6.01348258161213
C         7.94941113612980    8.23494370973493    4.90259168954955
H         8.84576322795827    8.67232752590802    4.45747189881625
H         7.16937719567124    8.21868351059645    4.14364637407203
H         8.17603830001377    7.20964286032166    5.18729192692342
C         9.14421463488739    7.96472677963648    7.81868129639724
H        10.11718831920772    8.35679078685638    7.51414273411573
H         9.00327172910315    6.99602759057060    7.34381404244503
H         9.14802494708288    7.82200628771537    8.89447127706480
C         7.91682432615718   10.39770829295014    9.57286314133776
H         8.50649412161985   11.31563646784854    9.52811981915180
H         8.50878994188124    9.62431072712582   10.05138921821974
H         7.03460282504632   10.58766350533442   10.18121586980314
C         6.19447684784142   12.16971745846325    7.71361416964262
H         7.00024185570003   12.85286474352939    7.98772196957616
H         5.54818230248076   12.04205700703850    8.58123342726217
H         5.61430854587654   12.61994395236802    6.91196010539491
C         6.32386187460970   10.91975343803225    4.73751836181672
H         7.16756269910899   11.41709191501597    4.25391396141288
H         5.54837871787381   11.65958799686938    4.91900120203027
H         5.92915461166951   10.17875629158619    4.04514701777519
O         7.05853945469128    7.37752714087433   10.12791542728846
C         7.46185044954606    7.08201398736749   11.44115411171615
H         7.93004506422744    7.98783514661943   11.82490436118818
H         8.19026050210583    6.26236393449292   11.46763051711168
H         6.60706089801406    6.82775613483292   12.07528866705261

