52
CSD_code = KUMFUU | q = 0 | S = 0 | Stoichiometry = C24H24ClN2Rh | MND = 8
Rh        0.26055095807638    2.64446895363378    7.56264894759895
Cl       -1.36128348052819    3.22497245174771    9.10650491749908
N        -1.16273436718867    1.87663454134462    6.36061767260775
C         0.05784152178183    0.79980444514138    8.32710665788106
C         0.60821359421138    0.25985587896402    9.49792002376406
C         0.34558505056440   -1.05821266999002    9.88220714900076
H         0.80498365124435   -1.44085252332517   10.78270523762849
C        -0.50076704861359   -1.85915716106976    9.13317523489281
H        -0.69513780187952   -2.87441231847787    9.44435089831040
C        -1.11716278212562   -1.34044062279437    8.01340300655218
H        -1.81931840095246   -1.93257784026876    7.44430912707705
C        -0.84670994163010   -0.02750817487983    7.62045667675726
C        -1.50212827768704    0.64400843648614    6.54576214879260
H        -2.29228707994033    0.17779167854114    5.96254773233597
C        -1.78145991094154    2.65532671404299    5.37576200315306
C        -1.90485468980209    2.19119694925222    4.06706561473534
H        -1.50663982679602    1.22075642682160    3.80491871189821
C        -2.50661173921325    2.98642301410612    3.10895678576923
H        -2.59112663920029    2.62742991686388    2.09382249288645
C        -2.99987962523296    4.23550499314419    3.44743451005221
H        -3.47221768079971    4.85024006426929    2.69618985245850
C        -2.88525810182859    4.69406152478454    4.75098207309345
H        -3.27638556958685    5.66459637541095    5.01790953086920
C        -2.27275459562921    3.91618403038441    5.71402069141682
H        -2.18522379954749    4.25294007069609    6.73821138611599
C         2.01487541568102    2.91344912286125    6.29264511348073
C         2.47827986354712    2.91824669043636    7.64888371645689
C         1.82596104247496    3.99455063803688    8.31506086176552
C         1.09198061718359    4.76103690434185    7.31646282945984
C         1.23212280416027    4.11766311760069    6.08092937988139
C         2.57154832764790    2.05666891404067    5.19725977052205
H         3.47165723556459    2.52258550024670    4.79043161747450
H         1.85654002880850    1.93846188072842    4.38532550640775
H         2.83884855332979    1.07072211660927    5.57127211084976
C         3.59002645643617    2.06220437698533    8.17040601754812
H         4.52532806969402    2.39029628207841    7.71234558710899
H         3.44452513157338    1.01219983530286    7.92143405234892
H         3.68265527206619    2.15206688330977    9.24803972056756
C         2.10644048626881    4.50695152634335    9.69191611743534
H         2.90184078167759    5.25357852873577    9.64394101433477
H         2.41602777755913    3.70637331071180   10.35856724393497
H         1.21945083061684    4.97542655330285   10.11261679291929
C         0.44481073080502    6.08042480033384    7.59505328014998
H         1.20849333773855    6.81523862137628    7.85460075258008
H        -0.24450936811434    5.99878820643585    8.43454285625538
H        -0.10469441139684    6.43990238522952    6.72844359381393
C         0.83064090043714    4.63414901541585    4.73498325830769
H         1.68776142092466    5.13217888886639    4.27697819064145
H         0.01608667980603    5.35033786960001    4.80734969240211
H         0.51717535419014    3.82946823230622    4.07264946996771
C         1.42320316812237    1.03132809138050   10.35670834841557
N         2.09059007643763    1.60396655255565   11.09446402182142

