72
CSD_code = KUMFUT | q = 0 | S = 0 | Stoichiometry = C27H33AgClO9P | MND = 2
Ag        5.54054922199488    3.36314834787624   -0.31664859622190
Cl        7.18710339600248    3.10043721120681   -1.87734729997169
P         3.70628601858761    3.85392954603151    1.16819501895138
C         3.07756303817108    2.50899983718520    2.19885437507750
C         4.10816530372040    1.93251807431977    2.95554605436865
O         5.30295456273304    2.54937339642456    2.77624142063694
C         6.42193230912600    2.08593976128173    3.49521866877801
C         3.87683606956480    0.84658116731985    3.77488077797314
C         2.59563004268924    0.29621069636088    3.81728119963746
O         2.44757180434572   -0.75630978003948    4.67117856896007
C         1.20012682572387   -1.40156460509747    4.74403106201054
C         1.58092273977419    0.80781853741855    3.02058980657349
C         1.82378747673937    1.90363175408240    2.19303178249027
O         0.89489714019801    2.42723675963170    1.35142373644420
C        -0.37797633501043    1.83976695737103    1.27507699360443
C         4.14800461708386    5.21484761084355    2.29203588382473
C         4.75892178980865    6.27344356430065    1.60531702979438
O         4.85784094530483    6.07311085586077    0.26565871928266
C         5.46581762972271    7.06461272894199   -0.53299362870827
C         5.20938678385539    7.39740391896168    2.27148339589444
C         5.07051999362385    7.46619444738656    3.65649728566147
O         5.53918725821903    8.61004500975745    4.22929547378720
C         5.46264647305551    8.75179644353061    5.62620122295575
C         4.48727519173294    6.41944891299090    4.35676812946681
C         4.02350868950962    5.29304339410119    3.67887060545005
O         3.43010017925128    4.24504192183521    4.30335121434850
C         3.36087394146443    4.22133699160147    5.70464473148644
C         2.28516836155295    4.59683123583639    0.31732112392568
C         2.25455713795545    4.62467694366650   -1.08145761294797
O         3.28984543731471    4.02304812271632   -1.71221989929660
C         3.36103614236890    4.07234695901867   -3.12174819082537
C         1.19995370389169    5.24267026544783   -1.73604658110152
C         0.17500521590588    5.83684329297548   -1.00322509022043
O        -0.80759068346254    6.41338718250989   -1.75054646445751
C        -1.87069102611945    7.05871126492514   -1.09368470425407
C         0.19286877729442    5.81541536134973    0.38579728662974
C         1.25145911198221    5.19357083117845    1.03859011504012
O         1.37344732250903    5.09794705706850    2.38277528883711
C         0.35243666549723    5.59724352503587    3.20325366090911
H         6.65187910547721    1.04573934346954    3.24699113601977
H         6.26232288569671    2.17739332127723    4.57437578285491
H         7.25410384337224    2.71994804913143    3.19326498194717
H         4.64308575445617    0.39472072293070    4.38167750011680
H         0.41464086403097   -0.72324417732346    5.09394532164552
H         1.32712623331507   -2.20574885871978    5.46731135798635
H         0.90995141661730   -1.82845536977399    3.77864357182072
H         0.60417462215781    0.35520758880008    3.03576320766062
H        -0.91943566392356    2.41800589357689    0.52669634368560
H        -0.91137579347165    1.89658053718188    2.23085379778968
H        -0.32409038212756    0.79515118350246    0.95043839791233
H         4.88532944708013    7.99262822358214   -0.51512589589392
H         6.49108353900396    7.26252199295242   -0.20916364608181
H         5.48473474239846    6.65863470256121   -1.54302977994618
H         5.67336825282865    8.22840712151517    1.76855063513383
H         4.42528201392884    8.74117894942026    5.97720599659676
H         6.03047506509118    7.97107560076126    6.14269699812181
H         5.90505936328159    9.72178928065490    5.84774369003228
H         4.38435938640352    6.47942689766802    5.42682807949559
H         2.90811101276668    3.26252433428529    5.95601361173784
H         4.35422228758243    4.27997859989637    6.16315404394568
H         2.73461054811679    5.02979261749705    6.09959595200540
H         2.53576673530069    3.51739230088352   -3.57850912868747
H         3.35571873630224    5.10445558993688   -3.48408346410879
H         4.30949747418201    3.60162872798339   -3.37943963040608
H         1.13052323160512    5.28425021893676   -2.80967770015163
H        -2.51077873720566    7.44876771539893   -1.88373707159161
H        -1.51672088900383    7.88890028781746   -0.47371322833255
H        -2.44635681774413    6.36166957224291   -0.47549315447822
H        -0.60196391591875    6.27241304203240    0.95056019721560
H         0.25131747602006    6.68487151158419    3.10957633058694
H        -0.61105324208063    5.12325723085842    2.98505669904192
H         0.64670213079355    5.35180174425335    4.22273650151458

