54
CSD_code = KUMFOO | q = 0 | S = 0 | Stoichiometry = C24H24ClF3NRh | MND = 8
Rh        2.06979892235820    9.97168939086482   16.52761034526777
Cl        0.46856508758416   11.32798879245761   17.48109510031173
N         0.64041382480317    8.64109846368248   16.03317248560285
C         1.92601271766715    8.92440448684348   18.21874542067521
C         2.58929326375108    9.16071858725398   19.41935402351396
H         3.27199598694494    9.99327655725322   19.51280750635386
C         2.37364760754551    8.34808173144828   20.51617001154492
H         2.89960488386321    8.52914901321687   21.44193334062307
C         1.46048374420339    7.29416820042871   20.44489919653414
C         0.75114734164070    7.05526290384318   19.28437879039269
H         0.02047423931637    6.26175120785277   19.23592142911818
C         0.98331682683710    7.87102568504318   18.17687432753142
C         0.29112065871380    7.77985999050418   16.93102018070406
H        -0.51262649468289    7.06928630255169   16.75791927836258
C         0.03184797074552    8.66939457627041   14.77353374452567
C        -0.09865323492272    7.50776350354414   14.01389360697540
H         0.27925626024728    6.57194795112932   14.40096318008909
C        -0.67938665007288    7.56811280668474   12.76030015536592
H        -0.76892577614198    6.66822682889587   12.16996831163882
C        -1.14579732661203    8.77405910052898   12.26350812533134
H        -1.60194293480996    8.81388089914644   11.28600075673258
C        -1.02492291001408    9.92801292917313   13.02264439311219
H        -1.39536497196496   10.86701343194101   12.63941148284389
C        -0.43174106744682    9.88457961549538   14.26916793456988
H        -0.33729976705075   10.77353885308857   14.87899512596997
C         4.27782867146893   10.09806410910384   16.40917876783543
C         3.75808835509045    9.50561871508709   15.21460279829802
C         3.02664765150989   10.52460851742735   14.48320268175327
C         2.98351640042024   11.67366673841677   15.28006651378941
C         3.70437233421101   11.39902274233545   16.51734656315694
C         5.32797678553886    9.48701947062382   17.28461836125793
H         6.28461968625344    9.51345157709896   16.75966197488333
H         5.10070116627757    8.44962366202105   17.52191659515047
H         5.43694694921333   10.03622639888934   18.21535281236764
C         4.19964939365457    8.19782079654448   14.63499478280822
H         5.09480299428043    8.35048509287706   14.02848610633751
H         3.42911152018302    7.77003265229986   13.99637744818394
H         4.43792396693922    7.48308796164258   15.41959767851124
C         2.58310186366769   10.38533468515107   13.06038791172724
H         3.43844755021107   10.54745286427731   12.40111670017758
H         1.81493711461940   11.11241919770083   12.81030256955346
H         2.18802111022487    9.39130928914567   12.85986894061115
C         2.40994420231923   13.01146997861251   14.94173281235098
H         3.21031281181511   13.75063190077693   14.88648669209156
H         1.70831962291792   13.32997418056228   15.71223016744093
H         1.89037572295050   12.98746868471311   13.98733380388842
C         4.05109118627382   12.46355230155195   17.51302500544823
H         4.74511473813548   13.17556387198029   17.06238769421654
H         4.51918418297550   12.04197538774041   18.39905071256876
H         3.15807940147457   13.00533059109991   17.81910005295320
C         1.27771416674912    6.41500262996652   21.64572990906314
F         0.15653029265428    5.67992209434531   21.60191807406307
F         2.29302744773848    5.53236155049083   21.78382078931718
F         1.23719450776520    7.10411054835900   22.79811682652800

