57
CSD_code = KUMFII | q = 0 | S = 0 | Stoichiometry = C25H27ClNO2Rh | MND = 8
Rh       -0.05765357420352    0.39430095006058   13.83258630310322
Cl        1.54746342221723    1.99181056417945   14.26824493210341
N         1.37047855737252   -0.81731057132790   13.08353613875939
C         0.04999065034470    1.05321275239453   11.95382073774583
C        -0.63683648518834    2.12685721452940   11.39491713564457
H        -1.31870307383418    2.71249248332304   11.99603627299955
C        -0.44278384838967    2.46812918704568   10.07131683174066
H        -0.98199793754911    3.29138244560614    9.62590880281620
C         0.46787800085404    1.76895138732000    9.26948506402679
C         1.19835307525267    0.72441666016117    9.81304669697330
H         1.92728146882582    0.19896557096427    9.21530447450426
C         0.98828603182635    0.36905266185703   11.14424177442421
C         1.69947701043955   -0.65162690440507   11.84480365747845
H         2.50260341934398   -1.22454049045560   11.38833306621320
C         1.99791471366018   -1.77722591841895   13.88459725785976
C         2.13203554944372   -3.09555544334113   13.45186075262705
H         1.74328528647698   -3.38130257552701   12.48444751915256
C         2.73103232261013   -4.03181365612337   14.27473887321912
H         2.82309564652564   -5.05478302702885   13.94054824518521
C         3.21158302766109   -3.66204499135522   15.51993675188093
H         3.68170821574937   -4.39655203559954   16.15629963191973
C         3.08634377751577   -2.34894833653524   15.94753258711348
H         3.46687843731793   -2.05878074026042   16.91547252302529
C         2.47574789248000   -1.40788858944789   15.14218822557381
H         2.37691823108839   -0.37680275324255   15.45522770242488
C        -1.73266586897343   -0.93000201623868   14.31678768001384
C        -2.26410320202714    0.36941145613579   14.04008559903208
C        -1.68058124634015    1.27026057218408   14.97831165954487
C        -0.94270759703105    0.48012127424632   15.95659929880006
C        -0.98496030730909   -0.86008537125119   15.55950408792359
C        -2.17794526007164   -2.20267910315673   13.66536332363703
H        -3.06235760427270   -2.58672422904727   14.17834193981044
H        -1.40143546480866   -2.96376693292722   13.71710343819361
H        -2.43468276998803   -2.03786775621095   12.62122063632988
C        -3.32996168757670    0.66403252652186   13.03024935711529
H        -4.27697855167106    0.25254499215863   13.38465023222644
H        -3.10530508655237    0.21428697147641   12.06531844089422
H        -3.45622529390316    1.73345135776206   12.88828073769506
C        -2.02924149727335    2.71188952529253   15.19087036052635
H        -2.71902120177802    2.80342439020919   16.03217684124118
H        -2.50184935585660    3.14056952708706   14.31067843048506
H        -1.13562418059409    3.29024410447232   15.41798573389741
C        -0.35507576725854    1.05590281438877   17.20438611215526
H        -1.15004298907436    1.46338973314038   17.83085410627801
H         0.33289089833287    1.86546168273686   16.96182912921045
H         0.18346632414862    0.30073072691275   17.77129100237807
C        -0.52160329111180   -2.05515330600529   16.33280999686995
H        -1.36648639512927   -2.47859481949795   16.88018173951579
H         0.25193872203636   -1.78959887554588   17.04862828492974
H        -0.12574724820093   -2.82761036231760   15.67610643553756
C         0.63205539118300    2.19589764373810    7.86363255840008
O        -0.00454501081508    3.07583786581773    7.33526709093910
O         1.57720804162438    1.49109357388290    7.21521866640239
C         1.79510050036196    1.85734924585225    5.86236533790775
H         2.55939906895658    1.18361244047901    5.48341426086505
H         2.13244616028447    2.89403017094730    5.79984323601097
H         0.87246195278586    1.75524433236824    5.28711228667522

