50
CSD_code = KUMGIJ | q = 0 | S = 0 | Stoichiometry = C22H22ClF3NRh | MND = 8
Rh        2.79724105073723    5.28828742698383    3.14210507202300
Cl        0.58031571438827    5.84851855272538    3.43586390618215
N         2.25107334013503    3.39300604795408    3.56006957380648
C         2.92828670952793    5.29664212924568    5.12909616236338
C         3.22960466011901    6.39878152067760    5.92525514682217
H         3.38122416701697    7.36983991093093    5.47617247988239
C         3.32091243523108    6.27650881422893    7.29783996914737
H         3.56323533416439    7.13163754198969    7.91142277456923
C         3.09198413497745    5.04196723649063    7.90363593922328
C         2.74367498193687    3.93966300459177    7.14582147481736
H         2.54065148478453    2.99757637453397    7.63109660437720
C         2.65363029491730    4.06800465921500    5.76214745122339
C         2.22434636167101    3.01844308375984    4.85710313866821
C         1.76561015709840    1.75477276207646    5.22764321517837
H         1.74890717365723    1.47556003632643    6.26835794106265
C         1.32203064777229    0.87864823350890    4.25863640463607
H         0.96386844926484   -0.10323124275111    4.52739122068663
C         1.32741335229746    1.29184256053022    2.93155609014172
H         0.96971648958824    0.64691346684376    2.14524912808988
C         1.79341855756503    2.55603929254225    2.63115111685020
H         1.78820696979194    2.91648266726413    1.60990794709162
C         4.70167344081310    5.16760063085751    2.05687417125056
C         4.65304777509389    6.43643376652375    2.71486901279266
C         3.50506715588906    7.12380431847330    2.22328174373520
C         2.96519200163144    6.35184827057813    1.11137445988289
C         3.69818321073573    5.16470947495200    1.00694951278053
C         5.82639422852843    4.18500972798033    2.16853377741634
H         6.60530548703257    4.43620297603660    1.44553727613370
H         5.49070834406870    3.17017520977987    1.96331054870622
H         6.26418141917096    4.20882981661366    3.16374343002175
C         5.70596946732362    6.95965601257122    3.64264599531556
H         6.62768748577035    7.11425048028854    3.07897901819691
H         5.91657871978331    6.26225811264402    4.45153234142001
H         5.41103529644951    7.91051278746734    4.07690323368708
C         3.10794902604310    8.54298725722898    2.49604879196884
H         3.42338230832287    9.17906006793377    1.66676212918178
H         3.56615881390528    8.91667868931123    3.40833664646823
H         2.02715248168787    8.62355911651408    2.59554376007945
C         1.88232108787805    6.85152762596185    0.21054012732276
H         2.20181645679845    7.77876951502172   -0.26686354450442
H         0.97777975803207    7.05951449272079    0.78155322802419
H         1.64461714283113    6.12533650199261   -0.56251969286883
C         3.61712463468509    4.14501675794992   -0.08797558982881
H         4.30885771865623    4.41947570207831   -0.88727570870299
H         2.61651498024691    4.09379981071679   -0.51300354366756
H         3.89840875031238    3.15542827753535    0.26807634837710
C         3.22358147654463    4.94367279287934    9.39338979162496
F         2.90633406965914    3.73473106550749    9.88123796188199
F         4.48423029747195    5.19321272433526    9.80943606305432
F         2.44629449790960    5.82943393796111   10.04315595341840

