72
CSD_code = KUMGAA | q = 0 | S = 0 | Stoichiometry = C27H33AgBrO9P | MND = 2
Ag        5.57373200896393    3.31673091723072   -0.29855047253793
Br        7.26258033406474    3.13267591113249   -1.98769984502713
P         3.72201547700658    3.80520873060027    1.16555536243080
C         3.07908110161204    2.47707790671273    2.20807169799404
C         4.10530136290542    1.89736313238861    2.96757659418578
O         5.30818885049690    2.49957148052161    2.77884998404845
C         6.41258626389621    2.06089718216076    3.53338587561859
C         3.86714257732192    0.81958886826794    3.79479710448203
C         2.58172195278352    0.27956386217064    3.84200047436208
O         2.42726103113813   -0.76655072301439    4.70259366889161
C         1.17929381361898   -1.41070404742091    4.77238794697034
C         1.57029544753034    0.79324494055017    3.04245268441834
C         1.82115923402722    1.88052563761864    2.20655728886292
O         0.89649253619309    2.40437230987189    1.35913314372163
C        -0.39048651939665    1.84702898519155    1.31017518449766
C         4.17646354298525    5.17482947276608    2.27211326998224
C         4.79137567960799    6.22190915665186    1.57228411601244
O         4.89739504614860    6.00241189979137    0.23471755253966
C         5.46799794542052    7.00115414648436   -0.58210319883861
C         5.24569901641379    7.35324463777564    2.22240460319430
C         5.10930283162489    7.43999522053932    3.60636833366758
O         5.58123067167318    8.59008950818634    4.16341986774599
C         5.50781490920388    8.75044167283887    5.55834053988374
C         4.52670636041181    6.40244251151474    4.32097893497040
C         4.05787005597092    5.26965570143012    3.65826921002802
O         3.46600066603116    4.22820008855526    4.29669422276347
C         3.38463138459031    4.22916734937419    5.69708576257938
C         2.31304958331450    4.55533505090193    0.30340078774478
C         2.29190649157419    4.58451025660916   -1.09479722483136
O         3.33441980056371    3.98951210390895   -1.72318201025831
C         3.39945123799900    4.03162763502113   -3.13379312888784
C         1.23948652433650    5.19933259555193   -1.75531980997117
C         0.20922424448581    5.79066138487981   -1.02833144329776
O        -0.77168019567768    6.36196129557153   -1.78179209769986
C        -1.84704412898114    6.99341957698679   -1.13240145418405
C         0.22085066570546    5.77326604059845    0.36097985288438
C         1.27713936934091    5.15451415357519    1.01900756458621
O         1.39725703327615    5.06372725661823    2.36439735682827
C         0.36382807685760    5.54337205555386    3.18035675687407
H         6.22608267038182    2.17295094763018    4.60601441988366
H         6.65721153241992    1.01749992260759    3.31285984822764
H         7.24818979843455    2.69509940835133    3.24056599715184
H         4.63065820693781    0.36586200561741    4.40361260863542
H         0.39269080123447   -0.73177381757234    5.11861788524758
H         0.89210467071272   -1.83906230601610    3.80670495833589
H         1.30326753513039   -2.21377215961646    5.49726162376447
H         0.58984308810761    0.34876444567322    3.06209119745980
H        -0.36753390716159    0.79737389710083    0.99835166861404
H        -0.90694811988252    1.92854578574533    2.27346755773393
H        -0.92997578637661    2.42827787210497    0.56282677183512
H         4.86964793163883    7.91703940050546   -0.55689930738493
H         6.49593479186752    7.22165288113134   -0.28192646775868
H         5.47369211099556    6.59176139823881   -1.59110445266521
H         5.71109375729996    8.17543498841208    1.70651436706848
H         4.47132406657980    8.74353519270829    5.91203149662630
H         6.07779100483454    7.97735839716275    6.08396321491712
H         5.94981607240010    9.72373226371797    5.76563112785727
H         4.42779682768260    6.47493819192790    5.39067768416475
H         4.37404272022547    4.29456165047981    6.16348830460302
H         2.75634283563452    5.04563597514694    6.07166089550843
H         2.92820558580767    3.27557479823205    5.96161182108179
H         2.56983775126392    3.47832400844012   -3.58359554639622
H         3.39679132103243    5.06207618250762   -3.50030250616234
H         4.34360755778384    3.55628661634105   -3.39940287641125
H         1.17607495368218    5.24009178093686   -2.82923780185179
H        -2.41720968825946    6.28944437132783   -0.51703839674259
H        -1.50889169682034    7.82925133521454   -0.51120507370986
H        -2.48743872129126    7.37392352188090   -1.92662423621825
H        -0.57620928147259    6.23185274526422    0.92142356807833
H         0.25135251918676    6.63060101750728    3.09634788710757
H        -0.59211087928412    5.06117951287792    2.94807943038688
H         0.65117568425061    5.29110190274924    4.20014727378594

