55
CSD_code = KUMHAC | q = 0 | S = 0 | Stoichiometry = C24H27ClIrNO | MND = 8
Ir        5.88013395323352    8.73866284638668    7.50318901118644
Cl        4.25604558459717    9.42486012507065    9.04524579923683
N         4.42002475551698    7.92531651023816    6.35146455442923
C         5.66588962885182    6.88724766241659    8.31043520646012
C         6.27503750034983    6.39500864275543    9.47355952359737
C         6.01154640581093    5.10178282047266    9.90680543278963
H         6.49147393056283    4.71152570315353   10.79106466436796
C         5.11779722288367    4.28403498743205    9.21985374777071
H         4.93341041782809    3.28505131865692    9.58607149777360
C         4.46339339560545    4.74900736592995    8.10642030263408
H         3.74113933183780    4.14016524309745    7.58410380511976
C         4.73390503887311    6.05008254800451    7.66157673989080
C         4.06970882484798    6.69574841180332    6.57864396837931
H         3.27448883752274    6.22230551342618    6.01034570679432
C         3.81718851634015    8.66119608910869    5.32457841829566
C         3.76054892957686    8.15764597144406    4.02606451158361
H         4.18650171875158    7.18699979252655    3.81441004548593
C         3.18609593980232    8.91097184451252    3.01860895275627
H         3.15353653380812    8.52038446045387    2.01199430053967
C         2.65458320516179   10.15923774529207    3.29710950621559
H         2.20568716964560   10.74281955213068    2.50745955010019
C         2.70218451138168   10.65686541697023    4.59029488957072
H         2.28211335897944   11.62712447838118    4.81025522089006
C         3.28619994508841    9.91977829685584    5.60184668934898
H         3.32641343386840   10.28887528391691    6.61569047261835
C         7.55438538175992    9.06853633690714    6.09295074315078
C         8.11260290287731    8.93928690724615    7.40637408375082
C         7.57291246525904    9.99246504996620    8.19718015961047
C         6.82034318338022   10.87098063041291    7.31656623131884
C         6.82735690835154   10.31956845326031    6.03498937772287
C         7.96073342817501    8.27193532028111    4.89293054381175
H         8.85289124025280    8.70942388196695    4.43974835925432
H         7.17191473614316    8.26440837356605    4.14274199868207
H         8.18715563593355    7.24324154974203    5.16493813160736
C         9.17959311052293    7.96975684778200    7.80367113853116
H        10.15819266666655    8.38358099031557    7.55125631270672
H         9.06429342039552    7.02254152456164    7.28180991221377
H         9.14840707445760    7.77810414093226    8.87129922442601
C         7.98726717399612   10.38173167547528    9.58073373644631
H         8.69978266154524   11.20856338169927    9.53715096588304
H         8.45386436745591    9.54506277682708   10.09057718956736
H         7.12472581020514   10.70349863722914   10.16073523384980
C         6.23620031084103   12.17310821008302    7.75509001511292
H         7.02554944020259   12.83377754987503    8.11746217768719
H         5.52866600003567   12.01385523747771    8.56946870139692
H         5.71659463730846   12.66698929397053    6.93714491874649
C         6.31159536590711   10.94223296892767    4.77805590225364
H         7.12152579645235   11.47175887820146    4.27134521633681
H         5.51569765060168   11.65349894061848    4.98576925273622
H         5.92146778953048   10.19215219261585    4.09243332524793
O         7.11267436460612    7.25560704740686   10.11977889278676
C         7.54577977727543    6.92182559376181   11.41519178984554
H         8.04899578139868    7.80698855095842   11.80320926555191
H         8.25289790321473    6.08370317576211   11.40407363464268
H         6.70318492451812    6.67731725173222   12.06883104728571

