50
CSD_code = KUMJUY | q = 0 | S = 0 | Stoichiometry = C22H25ClIrN | MND = 8
Ir        3.56451132335038    4.13726152142049   11.32791682536452
Cl        1.53955829420387    4.04653278008043   10.13939786903651
N         3.69792736255811    6.09202956188347   10.74390213747358
C         2.51967107510891    4.83788812657787   12.93210757597220
C         1.46246169727198    4.10884593070673   13.46381359593278
H         1.14798575866009    3.19306104513984   12.98450773878242
C         0.78321692622767    4.54403561413635   14.59034811916419
H        -0.03702115609945    3.95971701627613   14.98177783407139
C         1.14937633472766    5.72656191574252   15.20589686413168
H         0.62158081239138    6.07449179912006   16.08173508791126
C         2.19791715097272    6.46612562618407   14.68944647559471
H         2.49159989162936    7.39122232385804   15.16730477675361
C         2.88378176805408    6.02596133952710   13.56725416383468
C         4.04976431566944    6.82946617346437   13.03374512345469
H         4.16391129440136    7.75617288388867   13.59598822299601
H         4.96043439833393    6.23514108346416   13.15399295862552
C         3.87417225864404    7.12983831309026   11.57736129391812
C         3.90062079424746    8.43606160250302   11.10736241827014
H         4.02939725243071    9.24770218555644   11.80645974980735
C         3.76414500506915    8.68781784256445    9.75362067968925
H         3.78053806289021    9.69844957986658    9.37579434404383
C         3.60997041164505    7.60727736901677    8.89882863068566
H         3.50600345482005    7.74482706181722    7.83484561005459
C         3.57867916186744    6.33549235943661    9.43368556743836
H         3.43077862248154    5.47636223254513    8.79516103080377
C         4.49485824626839    2.26797810974895   10.23859015294894
C         5.51855605922684    3.20030551325027   10.37055174311804
C         5.66580766344416    3.51359664937995   11.78153687750418
C         4.78164626470802    2.66792710081734   12.51631457864210
C         3.96299841243019    1.98883684152292   11.56422290287119
C         3.99714606070286    1.60343285444399    8.99834936638547
H         4.09562895151711    0.52105336587838    9.08865445175344
H         4.55304451816133    1.93025324332641    8.12269883593874
H         2.94242124735780    1.83384562025422    8.84495710870925
C         6.40498842875794    3.74657014702154    9.29646410446868
H         7.36945936350743    3.23427156436395    9.30756884819497
H         6.59219401331753    4.81038289869489    9.44285863873230
H         5.96010703189661    3.61230691489693    8.31289380528807
C         6.83181279466013    4.26932659369833   12.34083200570908
H         7.73209658468275    3.65370279103986   12.28176819896348
H         6.67167472297321    4.52731770417929   13.38559315110974
H         7.01969303072220    5.18415305629579   11.77939024094094
C         4.77328882220066    2.46095943022543   13.99894865073269
H         5.41984096484423    1.61963535016210   14.25544390401434
H         3.76992097687023    2.24498585049881   14.35775540905230
H         5.13390381218152    3.34244017689368   14.52372494584675
C         3.01053037569706    0.86888122641626   11.85084828358999
H         3.51534670118321   -0.09204884109821   11.73005440816736
H         2.16797571860227    0.89916334366855   11.16289035657742
H         2.63087696253538    0.93077920654373   12.86783433693159

