51
CSD_code = KUMJEI | q = 0 | S = 0 | Stoichiometry = C22H25ClIrNO | MND = 8
Ir        4.02158422685559    5.12820282264155    4.30703870094858
Cl        1.97000122825451    4.28753133724536    5.08483437340193
N         3.80641951989888    6.65300744360812    5.62167563843694
C         2.98206085131641    6.48278845897490    3.21763707169833
C         2.42907049353565    6.28096287720203    1.95395721789566
C         1.80814205170062    7.31994140388327    1.27304494175840
H         1.40738156663129    7.13313598778371    0.28703785524558
C         1.70313806996864    8.57690368421862    1.84814642003950
H         1.22542516333625    9.37797454493770    1.30419890189880
C         2.18300469912817    8.79257201987184    3.12217890172518
H         2.06551688172894    9.76078602491788    3.58452474007548
C         2.80947747631106    7.75155257940416    3.80840496980795
C         3.26178333697893    7.81561616434977    5.18462325624570
C         3.12731184580234    8.90531676801776    6.04402060611756
H         2.69393862643190    9.82113301623758    5.67705866034718
C         3.53962058341375    8.80129434640594    7.35659855425096
H         3.44525518118622    9.63781199723403    8.03191738447672
C         4.06229265293111    7.59084908282663    7.79734397774753
H         4.37486686848927    7.45639092976736    8.82023956239138
C         4.17045957379998    6.54936739790412    6.89929528782949
H         4.55107558287001    5.58995135905477    7.21772210863576
C         6.20027026173586    5.07906226894337    3.90862508674220
C         5.53934155719450    4.51575871355451    2.77042471988205
C         4.82549153566337    3.36994128182488    3.22290231328406
C         5.20355269090387    3.12540832560060    4.60493744058761
C         6.05050034253997    4.15470122251411    5.01536883863050
C         7.18588087423326    6.20527861917242    3.87451318193765
H         8.18223090016666    5.82251413315714    3.64427038790520
H         7.23558586054201    6.71725323555855    4.83413306883627
H         6.91704385507654    6.93468527498108    3.11388183337564
C         5.68257220019303    4.96781633809448    1.35266354765195
H         6.46333298365776    4.38256054311020    0.86314874021736
H         5.95736822558273    6.01835202208792    1.30130753497698
H         4.75216820014942    4.83050190356568    0.80988649935609
C         4.14916278899416    2.35162141575362    2.36026347809077
H         4.84194841515506    1.53719825721424    2.13641251531333
H         3.82625599842263    2.80123150968736    1.42674351746637
H         3.28183865107078    1.93362546874818    2.86664394034543
C         4.79065964079540    1.91157363410088    5.37025955679033
H         5.15223655312146    1.01361043749267    4.86748374956542
H         3.70386912509799    1.85077633282489    5.42731610320995
H         5.18858306471919    1.92599552937830    6.38210276037690
C         6.79534009111879    4.24819331178387    6.30950392335669
H         7.76989053494607    3.76526663633453    6.20901563898146
H         6.25831359897914    3.75060152381333    7.11553678744592
H         6.96780158635738    5.28486865571944    6.59503860822867
O         2.50180702685142    5.03176724693440    1.35747893717953
C         1.29619900944953    4.29524158273953    1.48010983099280
H         1.43969392028531    3.37315894912846    0.91979732273485
H         0.44992789008440    4.84882773220763    1.06021935596684
H         1.09110613634458    4.06461764748960    2.52891164959580

