64
CSD_code = KUMKIM | q = 1 | S = 0 | Stoichiometry = C22H38N3Pd(1+) | MND = 4
Pd        6.69296499698746    8.33105591667938    4.36151527537394
N         5.85833311265331   10.14087850362234    5.07530013541524
N         6.96747986617840    9.41517305236324    2.44340013784354
N         7.04163747658085    6.57351057297501    3.22672566570289
C         6.38763601968433   10.70911315423806    6.31544963813712
C         4.42893745416373    9.85853935336504    5.25681039886813
C         6.04694299713127   11.10835039640178    3.97477503839619
C         5.94974516392728   10.46157350011372    2.58538335519578
C         8.26634819820438    9.99501791726075    2.11256945026867
C         6.61443473432257    8.34842061457655    1.50110460469288
C         7.35230244510080    7.05131916865270    1.86349036171105
C         5.75366881129996    5.86816239034674    3.23042150544210
C         8.08637028929595    5.64927745395112    3.66954479803625
C         6.56133101020510    7.35142719686881    6.10823001855521
C         5.37118732965600    6.77605082406733    6.51935670295518
C         5.31263640009860    6.07214965952743    7.71521351629153
C         6.45320398370050    5.94463656198173    8.48568568553517
C         7.64356845621676    6.51520349764912    8.07047130839884
C         7.71932078117365    7.22961025890527    6.87901310673548
C         8.99717560454349    7.88726646551586    6.40267636121956
C        10.24566738217209    6.97381135840794    6.36573421036276
C        11.32183322845998    7.82367672706517    7.04726277940288
C        11.60147829356795    9.05687298240721    6.17554892235647
C        10.35930435186120    9.94569320289816    6.40466703390234
C         9.47682380145863    9.06115059087463    7.29281629293882
C        10.53223304085982    8.43262873581807    8.20123017318393
H         7.45434771683373   10.90583639039685    6.20903850509467
H         6.24291060594053   10.00041804961483    7.13041364989622
H         5.87617876172114   11.64620351490426    6.56596162529631
H         4.01851967020690    9.33974293065058    4.38494035045841
H         3.86725970736719   10.78889622319084    5.40922797093042
H         4.29278563937072    9.22800685318579    6.13542465978809
H         7.03467576516212   11.56346597346344    4.08877372962598
H         5.30188913670037   11.91313826422195    4.04982883041530
H         4.95619985646719   10.01873499866469    2.45715866801156
H         6.06706814623966   11.24330239063467    1.82052342731637
H         9.04020933306511    9.22826274062941    2.11898802272917
H         8.54369706137519   10.75082741274100    2.84612567318411
H         8.24834417863455   10.46457065917326    1.12022539221787
H         5.53322137751340    8.17611445478158    1.54197094090736
H         6.86983853699074    8.62420061978702    0.46700884928020
H         8.42981190263454    7.22472765229354    1.79939268408433
H         7.09918818792646    6.27653306950777    1.12608337576429
H         4.93303708081025    6.55260666939392    2.99380016609573
H         5.57781587087753    5.43910350157378    4.21708897087967
H         5.75636855611418    5.05427562904932    2.49429793110161
H         9.05212080838916    6.15385644987301    3.67488555414810
H         8.14616642574624    4.77920589838027    3.00526243295379
H         7.86988174075600    5.30766770997913    4.68121994874171
H         4.47116085209221    6.86101251471586    5.91451577016012
H         4.38262038400620    5.62632191307603    8.03376869318887
H         6.41747255470651    5.39622090761990    9.41420498389284
H         8.52183595255201    6.39566688357368    8.68473138912835
H         8.79170309714373    8.28683366096442    5.37919717360524
H        10.53176379919997    6.69652572578101    5.35183271869326
H        10.07198249795014    6.05544558998495    6.92673145662274
H        12.21554158219448    7.26268656921821    7.31107396317687
H        12.51002083551360    9.55986053710352    6.50302147802351
H        11.73063031989627    8.78708303119612    5.12760128867014
H         9.86480652346114   10.21787364978372    5.46864492145458
H        10.62629219200994   10.86632901320505    6.92347103989332
H         8.66889686880403    9.58707467749604    7.79778357669942
H        10.14083580411145    7.69586485968096    8.89606690503835
H        11.09473544000931    9.17953235398618    8.75731680597045

