72
CSD_code = KUMLEK | q = 0 | S = 0 | Stoichiometry = C36H32AgClN2 | MND = 2
Ag        9.53087014139803   10.81081648757292   22.60239276088667
Cl        9.80852590507838    8.58845041580240   22.56062045674121
C         7.73998956622927   13.91587208370211   19.91710205214673
N         8.20630656302967   13.65410849129812   22.28827229082160
N         9.57702475752641   13.50439057985816   23.94166065188208
C         6.36600694266034   12.42810997915253   21.25596599478508
C         8.03070601998445   14.95687483352117   22.96288599683960
H         8.35256520458306   15.75662639102166   22.28392999804591
C        11.40945772743719   12.43034318620829   26.96100458963052
H        11.20854270755996   12.22274570197666   28.00193884090992
C         5.85617077624579   12.77579177405613   18.91245909351474
C        12.94084771656047   12.54978324094123   25.11992575671589
H        13.94060360363499   12.45015274877417   24.72605099814275
C         8.96811885378336   12.76607191013910   26.63944338836987
C        10.61318218450871   13.03783171988016   24.78050102407256
C         9.09925980413572   12.86880959229707   22.87470178234578
C        10.35066836080236   12.76691995438193   26.12635552373885
C         9.00583171315050   14.84147494163761   24.14793377807059
H         8.48459275925154   14.87402275590044   25.11141419905038
C        10.08853643251320   15.88776328443145   24.15004878473146
C        10.97570395630191   15.98442096246182   23.08492368756469
H        10.88214523753500   15.30953436010848   22.24624573788866
C         7.43275801497756   13.32398359645130   21.14526143977397
C         5.59356496775731   12.17300943680514   20.13214160293839
H         4.76851000062762   11.48035549888761   20.21372346999701
C         6.94051754308378   13.63664499214769   18.82054544176013
H         7.17533083436908   14.09251985128615   17.86907704738972
C        12.11202468430921   17.79424182233308   24.17013823232048
H        12.89739984695228   18.53486584742716   24.17793695559436
C        11.98201907308095   16.93195153321691   23.09453803905540
H        12.66645403142676   16.99706877560905   22.26181558392524
C        11.90416290271431   12.91636753526565   24.28102517443754
H        12.08970950814872   13.12505491465608   23.23739241303249
C         6.57758921080915   15.17744836327176   23.29644489570837
C         5.98442242357417   14.64068555772542   24.43211723702311
H         6.56717312995571   14.07304844898288   25.14208842604887
C        11.23409330016412   17.70167297660734   25.23621743125776
H        11.33327499432061   18.36981873476964   26.07861152422548
C        10.22931093906461   16.75047344321982   25.22767633992552
H         9.54605820551292   16.67727233192327   26.06198733571552
C        12.69566121858051   12.32622299410264   26.46425938268168
H        13.50607143898995   12.05626081425470   27.12424552251436
C         8.02851239441802   11.90967900668539   26.07121630833358
H         8.32725704119445   11.25566275822359   25.25602035884926
C         8.93082954579246   14.81456756174634   19.75929832595639
H         9.25606248415202   14.82620133647749   18.72205201173443
H         9.75658942629025   14.46525817004528   20.37586695175148
H         8.69406231319782   15.84067851341002   20.04468425177495
C         6.06822742919927   11.71945925525641   22.54065336229191
H         6.81533316210983   10.93101964573694   22.70765244428446
H         5.08780850066165   11.25344781118320   22.49914245300685
H         6.09934475626481   12.40155369118732   23.38679846711409
C         5.00413167323279   12.50528233692138   17.71088458810226
H         5.62169987085078   12.20688158421181   16.86561435343018
H         4.46087167971849   13.40571943222359   17.42470339561584
H         4.28415144063184   11.71706248487508   17.91319910868287
C         4.63261692089578   14.81822183882032   24.66896931388380
H         4.19086445521542   14.39588073374321   25.55918955270504
C         6.36491924717827   12.69032527269015   27.61437566299300
H         5.35455266179500   12.66046236384867   27.99441165057435
C         7.29492460010870   13.54381611706431   28.18492862251837
H         7.00972869400646   14.18146639593645   29.00887947945316
C         8.59244553225217   13.57785312005369   27.70516304552394
H         9.32197437026406   14.24105126436714   28.14842965611761
C         6.73480464999689   11.87048530077506   26.55950388036527
H         6.01557469463136   11.19802793104697   26.11627963821376
C         4.43336713391442   16.05161757491459   22.62866386168853
H         3.83217110850549   16.59911036877473   21.91835168393060
C         5.78543856733211   15.88061348622570   22.39587794727110
H         6.23078162002665   16.29440842654416   21.50243215895930
C         3.85292578106225   15.52246617247437   23.76872646014671
H         2.79766504277393   15.65643718046730   23.95281012250845

