67
CSD_code = KUMLIN | q = 0 | S = 0 | Stoichiometry = C20H40Br2MoS4 | MND = 6
Mo        6.47836196373597    4.69576598607136    1.05520642373013
Br        4.35586068554398    6.08507151125282    1.53196573455065
Br        8.57585491988238    3.32358260132658    0.58476701596025
S         7.91569138372672    6.53756897641951    1.71199601691043
C         7.48396985026455    8.07920833815370    0.83258049002665
C         7.65648267685487    8.01324343119449   -0.68761973234840
C         8.98233591723576    7.34780571273991   -1.05825472796271
C         7.64666081955711    9.45988092860539   -1.20666371489414
C         6.47845784166820    7.29049467114919   -1.34715213686937
S         6.55274716806409    5.46838199576323   -1.24369653560030
C         4.96486991248597    5.19546608345351   -2.10416470220476
C         4.55050162523921    3.72600482484518   -2.22334934765767
C         5.73486784916670    2.85644234136391   -2.64678037360658
C         3.45224620806574    3.65157071617688   -3.29599095339468
C         3.93778754184340    3.21756483124873   -0.91519213224600
S         5.15600092183977    2.77913408380788    0.37327671679080
C         3.90585413997670    2.33887459614095    1.63014386894986
C         4.48569822992857    1.91170645623875    2.98156875154423
C         3.35807796720161    1.21015144083943    3.75522315253898
C         5.65381818559042    0.94326061515687    2.79307732428503
C         4.91126077968449    3.12712415543475    3.81023545116188
S         6.51894451599669    3.84818190832243    3.32875326821379
C         6.46235130650924    5.19749711002782    4.55858109865333
C         7.65338571580300    6.15856219622917    4.50320136595701
C         8.96891188423075    5.39160540209313    4.36402689040828
C         7.65914887052239    6.94821651671055    5.82180376181281
C         7.48958286780345    7.17525764503847    3.36971366084788
H         8.15434699854958    8.83688898087093    1.24335233300147
H         6.45392615418353    8.33460112656787    1.09284373618337
H         9.01728903997367    6.31770512022259   -0.70238290509082
H         9.81378461792275    7.88903278962266   -0.61309181844964
H         9.11121939276000    7.33843320207775   -2.13793067815866
H         8.46535468414968   10.02541182232325   -0.76829939673804
H         6.71078007845720    9.95410086272204   -0.95353200190412
H         7.76413895580878    9.47555660775491   -2.28749951178300
H         5.53258458030464    7.61149966312361   -0.90421556997110
H         6.46587654315209    7.51322696206429   -2.41598200776041
H         5.10750150667941    5.61662609576794   -3.10141337453363
H         4.19817310382026    5.77085853621864   -1.57973223553635
H         6.53190619107470    2.88897411092601   -1.90342995633652
H         6.13989488452806    3.20543658107549   -3.59364223972168
H         5.42118997388128    1.82173841537317   -2.76246703123695
H         3.11482857631350    2.62566892496459   -3.42223539688486
H         3.83194959606020    4.00370669798815   -4.25207698748824
H         2.59769994617963    4.26459723089695   -3.01642660498345
H         3.25881730346673    3.96214987565675   -0.49264773117533
H         3.38347115388524    2.29628607317361   -1.10549340344879
H         3.34638473605774    1.50861334127597    1.19440179077479
H         3.23813097139640    3.19533863439556    1.75081845054055
H         3.01192567037650    0.33523919180283    3.21029629652744
H         2.51475789117966    1.88214485601441    3.90149163151037
H         3.71296300672650    0.88420131302354    4.72993187193027
H         6.47030059146412    1.41531599836836    2.24583486810534
H         5.33198842240528    0.06786689892954    2.23407794408308
H         6.03499922737630    0.61909138546307    3.75847597303691
H         4.15933742669422    3.91757728319908    3.74902642536389
H         5.03462260714914    2.83175421654604    4.85415316730897
H         6.44271927951114    4.69585383546276    5.52822553609436
H         5.52356909512803    5.73849823645351    4.41721024584936
H         8.99466656876441    4.82054873186792    3.43551528106739
H         9.09075464649354    4.69769208483233    5.19229214445410
H         9.80945821458766    6.08142687582828    4.36124711297851
H         8.48791709754162    7.65190501007645    5.83841164428333
H         7.77044264032481    6.27338750082202    6.66708435671393
H         6.73133112074426    7.50389517635088    5.94284580882434
H         6.46273102012020    7.54669405738031    3.33037278130154
H         8.16723473638630    8.01583061671082    3.53233281571079

