84
CSD_code = KUMRAM | q = 1 | S = 0 | Stoichiometry = C42H38NP2Ru(1+) | MND = 8
Ru       -3.53649326884891    2.40317277597783   17.54692526182394
P        -4.99188488695707    1.28509911060638   18.96508673953822
P        -5.11077943917336    3.26621790918350   16.09992651972262
N        -3.51732321106015    4.18327917607656   18.64056311426722
C        -1.80849061765494    2.43983776831295   16.07622038895117
H        -1.63613667138569    3.02708813305310   15.18484378066086
C        -2.35241185966490    1.12005338963127   16.08899416852578
H        -2.66551608605793    0.56864651907412   15.21258559632410
C        -2.18239028128970    0.59792360378614   17.38848892075088
H        -2.36759897108573   -0.42753893127173   17.68096090184397
C        -1.55675004255180    1.59303741048639   18.19486599310311
H        -1.14949249322462    1.43918006088800   19.18469324929684
C        -1.29699768187017    2.70979507352920   17.36232442125263
H        -0.72791042051457    3.58675326081119   17.64617595718022
C        -3.27777341376957    4.07728559765421   19.95273806465288
H        -3.32703899436907    3.08266205929315   20.37583236219326
C        -2.99554898794823    5.15075134091688   20.77257849499256
H        -2.81384410961884    4.98596352198013   21.82179370669812
C        -2.95730767796448    6.42061909583013   20.21884854270381
H        -2.75226963949217    7.29024077364539   20.82206058227213
C        -3.18389346732292    6.53505494345104   18.85943846798880
H        -3.15016178873956    7.50123284670599   18.38096266940653
C        -3.44765343636354    5.40707633135908   18.09003375744475
C        -3.64476910930237    5.56419190392052   16.60988721743912
H        -2.88386525808811    4.96919917680174   16.09316310433229
H        -3.49137625190925    6.61161436105554   16.34470093122210
C        -5.03633265892334    5.11221776361975   16.15747371195540
H        -5.25614754269872    5.51967132032505   15.16805861520943
H        -5.79342966344267    5.47081444397159   16.86075293790523
C        -4.67730365894439    2.87862082857401   14.36764652950107
C        -3.90021525718350    3.71007079700523   13.56760673763599
H        -3.55221560182272    4.66543433062288   13.93254494248190
C        -3.56551345708401    3.32339179165826   12.28119181924905
H        -2.96599089995257    3.97837465551428   11.66665487627983
C        -3.99403524534483    2.10537356547863   11.78218125177017
H        -3.72865438331679    1.80838855378682   10.77940889601299
C        -4.76718863182652    1.27143699412446   12.57401067125263
H        -5.10897181286976    0.32272807518648   12.18822956703817
C        -5.10467723848100    1.65383958806261   13.85831309140650
H        -5.71826783035403    1.00744837155998   14.47104371399546
C        -6.91388258242208    2.97108951276452   16.00716508145318
C        -7.41725436770247    1.72662504051856   16.36845736494129
H        -6.74249927128997    0.97232762386187   16.74778997821804
C        -8.76774919963863    1.45244683978017   16.26569958548126
H        -9.14118746793997    0.48125413982372   16.55354148003162
C        -9.63538640666852    2.42371930706614   15.79648790738598
H       -10.69146028473462    2.21642119984766   15.71915898922681
C        -9.14110456787482    3.66098505280233   15.41967976650509
H        -9.81210078460586    4.41796688252737   15.04254038486508
C        -5.31728635226456   -0.45301560199285   18.50825126613461
C        -5.15594145495654   -0.84861857503164   17.18369102297596
H        -4.80887688046090   -0.12387884362256   16.45474324319722
C        -5.41573807361279   -2.15221712660310   16.80242909834523
H        -5.28599322666007   -2.44861416519933   15.77226669100211
C        -5.83573478698151   -3.07675125638676   17.74475927583993
H        -6.03700345657989   -4.09528564311037   17.45074771577535
C        -5.98610012141188   -2.69456198091904   19.06813878160115
H        -6.30308039741035   -3.41580553850951   19.80620435172528
C        -5.72745164905918   -1.39128341337058   19.45358056303804
H        -5.82873173338053   -1.10839012211026   20.49215658243262
C        -4.43065179139025    1.04048784768539   20.69028827655156
C        -3.36761048003335    0.16916008855776   20.92306859409433
H        -2.92678285427772   -0.36699341678498   20.09345073632941
C        -2.89427830822238   -0.02750881140682   22.20622300476153
H        -2.07649104305008   -0.71078699831273   22.37932706486571
C        -3.47267011680606    0.64840142908727   23.26976431500196
H        -3.10465298156455    0.49239594984462   24.27201433927774
C        -4.52531130498619    1.52003005157390   23.04465798480342
H        -4.98008591407407    2.04415907328229   23.87162170011141
C        -5.00345871992578    1.72143935689464   21.76135605901186
H        -5.82370425464046    2.40434739809837   21.58936559176035
C        -6.65657946368166    1.98811207333425   19.24251063371076
C        -7.75937024853602    1.21430691106959   19.58639381428093
H        -7.66166286800664    0.14504736711264   19.69896844449967
C        -8.99347767537395    1.81320138926276   19.76629495901696
H        -9.84754731533754    1.20715795054881   20.02795106564783
C        -9.13822506946324    3.18135639758712   19.60887624906298
H       -10.10437082930891    3.64194038447057   19.74536313972861
C        -8.04115181938256    3.95784647751684   19.27354562326282
H        -8.15125741409416    5.02524242426248   19.15210737305350
C        -7.78865742984807    3.93575749606086   15.51605495414872
H        -7.42789691051537    4.90196536269925   15.20054958394412
C        -6.80736444596897    3.36306973592006   19.08883067995211
H        -5.94225572740814    3.95900243707613   18.81681640671405

