66
CSD_code = KUMROA | q = 1 | S = 0 | Stoichiometry = C29H33ClNPRh(1+) | MND = 8
Rh        6.58194894977847    3.95427533323117    3.51777263064384
Cl        8.42007202782569    3.44149879670023    4.82339391329116
P         5.94003717632359    1.79247476217987    3.94640110488052
N         7.57571325162942    3.10827385723618    1.82689199846745
C         8.86523498190603    3.40467079880032    1.65547436564111
H         9.29617190572677    4.11381604630122    2.35076122416479
C         9.63713577240260    2.82689928107420    0.66472386922795
H        10.67441257140910    3.10013288608300    0.56336493496987
C         9.05066202128032    1.89266525367491   -0.17489839855526
H         9.62350328546644    1.40585798535836   -0.94842564940953
C         7.70849171483401    1.60147856980986   -0.00318279675889
H         7.21453295123363    0.88871308630954   -0.64445529148053
C         6.98613304184064    2.23267767367606    1.00227872332621
C         5.52061482063969    1.95862886199649    1.18291964272463
H         5.12595086015267    1.49180991523042    0.27910639721059
H         5.00517998657014    2.91024156296021    1.33914700673461
C         5.24068688586118    1.05234297899140    2.38852910090655
H         5.69323238862889    0.06888542492492    2.23993084564004
H         4.16303187216810    0.92175839451753    2.48948068014040
C         4.68941819756922    1.68011208971048    5.25615257777012
C         5.17586840095146    1.93264924389379    6.54127098328508
H         6.23103574338069    2.13895309260980    6.66964078872518
C         4.32355512608371    1.90615069881049    7.62732487190905
H         4.70651918878535    2.08978726944799    8.61936848405072
C         2.97376974546587    1.64442646544124    7.44006366720857
H         2.30515108752529    1.62220284922764    8.28640995895955
C         2.48363661458722    1.41158045595019    6.16627703700969
H         1.43331623924831    1.20999952544167    6.01972348547602
C         3.33469517530481    1.43144151335367    5.07232506596583
H         2.93102997148791    1.23750245066021    4.08919728779474
C         7.11438707522462    0.47433469800135    4.40469260394828
C         6.71889885295648   -0.54985464682221    5.26113843492605
H         5.73885302063791   -0.53500396565976    5.71451553230568
C         7.58417027031052   -1.59227867775792    5.54161780230398
H         7.27081061048971   -2.37724341313499    6.21278606337303
C         8.84330341173664   -1.62934567995706    4.96701127195455
H         9.51808970489273   -2.44008041135242    5.19393226062847
C         9.23424630923440   -0.62164100458818    4.10073428266945
H        10.21412492440095   -0.64511685511691    3.64877348200888
C         8.37467764521359    0.42332960500568    3.81699593664967
H         8.69684743796813    1.21346754255845    3.15700756727408
C         5.46896960083937    5.53251477088853    2.41710248461194
C         6.66935707168228    6.09102637083266    3.00727889140150
C         6.54586856307031    6.00733350589433    4.41807098426489
C         5.33457074329918    5.28538753544233    4.71315091362940
C         4.63553633215076    5.06384104311836    3.46714339538095
C         5.10859786698089    5.68113293579481    0.97434333669460
H         4.91797887731627    6.73610571790268    0.77141832749172
H         4.21046286797945    5.12428008843718    0.71997513068710
H         5.91844829434287    5.36213846235218    0.31939349173147
C         7.71041205548957    6.87362478538349    2.27329535709310
H         7.86150126438848    6.49302770283107    1.26522710308915
H         8.65859568045235    6.85397672492429    2.80582951748516
H         7.38976521678849    7.91408111865316    2.19623639187690
C         7.46864264485505    6.63146149268321    5.40674259593699
H         7.47342259517238    7.71131027952479    5.25522989726099
H         8.48854079898945    6.26948011266284    5.28207940161439
H         7.15421150267672    6.41968697079409    6.42415013472156
C         4.73006096984589    5.16543407295895    6.07455926301654
H         4.33815002890165    6.13939036321621    6.37269630032048
H         5.46959715424890    4.85780472019055    6.81015716512482
H         3.91238341938120    4.45018005559315    6.08645364416008
C         3.21860868342725    4.60661765893437    3.35090570859666
H         2.99006717117258    3.83271919183937    4.08103433562090
H         2.99495726295781    4.22721735734532    2.35667775101301
H         2.55934211651713    5.45435264740639    3.54417472829694

