89
CSD_code = KUMVEU | q = 0 | S = 0 | Stoichiometry = C38H42N4O4Zn | MND = 4
C         7.00622613314668    4.60114560461430    6.55311549250953
H         7.59584921535403    3.69858523394665    6.62967755542901
C         7.73930031589489    5.78343701087384    6.44716102756189
C         5.62716650794806    4.42837753426268    6.64704665152117
C         9.23999003080406    5.62066293736160    6.46846388556246
H         9.74171368065565    6.52542235675573    6.13595551782958
H         9.51506218826951    4.80092856318674    5.80766128523428
H         9.58891642298561    5.37464549804561    7.47031960066006
C         5.15110477875160    3.02915161436679    6.95556041148518
H         5.71040122496471    2.31708241692140    6.35234108016053
H         4.09008267089275    2.91976013893959    6.74551710663864
H         5.32573418131532    2.78673283880952    8.00274455282750
C         7.90066891323510    8.15321406710265    6.49003188180876
C         7.74665233207387    9.19799589332882    5.58357154095394
H         7.11059987855654    9.05816929710109    4.72161948238979
C         8.38978239892419   10.40931671854798    5.76380821455779
H         8.24419673100103   11.18789834495888    5.03109479575449
C         9.20300480240894   10.61012986353201    6.87275865011381
C         9.34511512289158    9.57707233166385    7.79891168644979
H         9.96275305286442    9.74824751248880    8.66670726841916
C         8.70684984252246    8.37145844927361    7.61244817628531
H         8.80474418404682    7.59412918729058    8.35509481573635
C         9.75566201232502   12.84470012883541    6.26589184434607
H        10.12667173227629   12.59535799772151    5.26583888801581
H        10.36481231794248   13.64440040671773    6.68474929579987
H         8.71664681431868   13.18323038060230    6.19252672491655
C         3.42167507096643    5.30117866007605    6.82127586896961
C         3.05845706674762    4.96281076905028    8.12223603824637
H         3.82735445831964    4.71058449915408    8.83715963487739
C         1.73758267837469    4.99613711345044    8.52957567416827
H         1.50438080184412    4.74832673391592    9.55294081336404
C         0.74293056297027    5.36462106230697    7.63409340843799
C         1.09650843667908    5.68439148141211    6.32319046938265
H         0.31460860780705    5.96496621631287    5.63504816024486
C         2.41392980514993    5.65849256790431    5.92520045332096
H         2.68429815732778    5.92912470451906    4.91377723110538
C        -0.98876774726402    5.14602823951540    9.25066866936031
H        -0.76560599329256    4.10340834008483    9.50082782428166
H        -2.06758162738212    5.29618031199818    9.27571100011052
H        -0.51255885096855    5.80508895780049    9.98373844557375
C         4.92886598966921    9.03729816675597    3.14483222401991
H         4.89974356065680    9.80433567017171    2.38331919240425
C         4.25326561230177    9.34358340378360    4.32416011049343
C         5.61191733762312    7.87031256752846    2.78742139861921
C         3.59522788594210   10.70289656811501    4.36735851896584
H         2.69492780089567   10.71784654220656    3.75500658936427
H         4.28000094911443   11.44687296565307    3.96456969737787
H         3.33167775225542   10.97838626678004    5.38511753826571
C         6.17179332261363    7.82576729605654    1.38617136936243
H         5.48383754486601    8.30427318552309    0.69292396306652
H         6.34529521927622    6.80020984710375    1.06892797697245
H         7.11841753172730    8.36344972026083    1.34303119714156
C         3.29633457904796    8.69161070711324    6.41045870219409
C         3.70625376996534    8.45751114847033    7.72470507635106
H         4.75475227393361    8.27278790602636    7.91902027052054
C         2.79553447432192    8.44659804187105    8.75579894217343
H         3.10851592738582    8.25551237423450    9.77018802114161
C         1.43953161201589    8.66677392145238    8.51001325012084
C         1.02407679782554    8.91602773577068    7.20945057421923
H        -0.01605171641880    9.08105605864143    6.97741013908798
C         1.94328225668507    8.92648639971470    6.17647101363680
H         1.59270222477881    9.06678679997379    5.16544831448880
C        -0.76529587689202    8.80754910100706    9.38900215036639
H        -0.96647332393778    9.81518296304105    9.00971136667384
H        -1.23299866125161    8.69445362784052   10.36644983583546
H        -1.18305836660894    8.06956953112154    8.69689854574179
C         6.54458290375281    5.73712923099072    3.29397537936058
C         7.91621049417705    5.86547171118659    3.06520469671842
H         8.36430582887569    6.84812035827039    3.05528186916799
C         8.70550151386598    4.74958019218348    2.89954292660372
H         9.76798915767244    4.84116569735397    2.73541333423800
C         8.15010908399647    3.47115247985392    2.94860064213627
C         6.78470140550388    3.33642723851418    3.16791938540571
H         6.32027890899238    2.36353184571787    3.21076405366818
C         5.99707505367786    4.45982448419571    3.34277808109428
H         4.93789974837744    4.34966540330857    3.52380552753167
C         8.52276047581453    1.12280153543537    2.82116836836852
H         8.07088882743084    0.89406994779143    3.79245914658644
H         9.38095746270444    0.47124751685477    2.66276066045777
H         7.78640548800859    0.94780347704517    2.02956728116378
N         7.17807409301143    6.97224266661329    6.31621606115892
N         4.76151301073482    5.40470150044769    6.44218886548898
N         4.21691700925586    8.53915316349732    5.37392402230874
N         5.73913894307455    6.84165861360172    3.59578796456364
O         9.88589553968323   11.76225103041795    7.15161243956071
O        -0.58890644989772    5.45854580319178    7.93868316179753
O         0.61061480753356    8.60009014279466    9.59657765901854
O         9.02628671437759    2.43366363203676    2.78021956819622
Zn        5.38180458772308    6.99117182791031    5.51992180239928

