129
CSD_code = KUMXAT | q = 0 | S = 0 | Stoichiometry = C61H59BFeN6O | MND = 4
Fe        1.34756494860238   -0.38521090299814   14.22415771316818
N        -0.48276806201624    1.26453967221036   15.76407611816152
N         3.19175668790387   -0.11960682710436   16.57203702454240
N         1.10178563524517    0.03901013863055   17.08902269576706
N        -0.57732634239688   -2.69683490472467   14.49884091867507
N        -0.74782049461280   -1.16578973706858   16.00779055872536
O         2.43876677322223   -0.73920493489993   12.61994251046974
N        -0.03445966264135    2.25221142857429   13.89433284920637
C         6.43433184170054   -1.46901181172522   15.44858082956742
H         7.07719058172596   -2.31680010151939   15.63940166846363
C        -0.96998301386365   -3.76346385853467   12.34842978911812
C         4.40913234636047   -0.26886881328307   15.86880748973879
C        -0.12631583668023   -3.50185098983590   13.42927184262349
C         3.13107733681225    0.19396858705375   17.90936811546360
H         4.01150492616212    0.32785348887025   18.50462709459985
C        -1.68845913056972   -2.11331188268286   16.28919999064578
H        -2.34945720722757   -2.03579643540789   17.12789223780014
C        -2.66615451265924    0.77365062634006   17.96511740987442
H        -2.98430090411364    1.20592531509394   17.02776129694583
C         0.37135908496545    2.51446418047736   12.56745860295050
C         4.79313749397174    0.71856458590751   14.95988535918868
C         5.22776791820935   -1.36972781607786   16.12544129520680
C         1.16669410473870    3.62612945127738   12.28267337830851
C        -0.80171235372450    3.12045385418613   14.63705622387432
H        -1.10323931466839    4.07847065753483   14.26613633128200
C         1.51379448338454    3.87496391417231   10.96148057990520
H         2.12598669261337    4.73676621833454   10.73527999047016
C         6.82750128062368   -0.51296349311539   14.52234092373050
C         1.14933947725682   -4.06707889267913   13.49988749396339
C         0.31172416341324    1.94465809112560   10.24054043015696
H        -0.01543085620820    1.28834142349527    9.44777377524675
C        -1.97438813589596   -0.45068813520044   20.33011889684176
H        -1.70231541378431   -0.95548318613664   21.24707148565746
C         1.81893983987581    0.30429892070880   18.21856926631864
H         1.36119765232750    0.57528109726614   19.14711287654845
C        -1.59203727531740   -3.07757200426068   15.34701391278965
H        -2.12949961245909   -3.99448050650487   15.21658668983193
C        -0.07560706303924    1.67328056486187   11.54220913931003
C         5.99999934291284    0.57688684331957   14.29394610070370
H         6.29890441808149    1.33067992133464   13.58108656488159
C        -1.39807276939737    0.20010011779397   18.05979029058298
C        -0.05212882665413   -1.50984742730265   14.90739704848331
C        -1.09759336539828   -0.44584397516509   19.25939427093202
H        -0.16513219376810   -0.98315962226672   19.35293638808749
C         3.18883228767823   -1.01143550166032   11.48731396315218
C         1.93675485448583   -0.19498775384233   16.05414594927623
C         0.18442829175045    1.10857030024757   14.60164766058321
C         3.89072971153450   -2.36215781624279   11.62672083306478
C         3.90623503531119    1.90041911114408   14.72805818244522
H         2.98385911890918    1.56794389789499   14.23765693084836
H         4.39815950991587    2.63082362251334   14.09287472792039
H         3.63257026333926    2.36794329574119   15.67395723858917
C         3.98388475186230   -3.28149003621865   10.59008504136464
H         3.52040320802402   -3.07365350362265    9.63667264636370
C         5.56093539675803   -0.20062365232118   10.92230469936306
H         5.88494046929693   -1.22176095311686   10.78408991702088
C         8.10661063591008   -0.67637369598869   13.76119223093073
H         7.94438324581167   -1.35138697722422   12.92039604473864
H         8.88478682062157   -1.10265010501031   14.39101002504074
H         8.44843686713166    0.27751686291853   13.36783309510096
C        -2.34074382050311   -3.15848983246047   12.27301108515755
H        -3.06433216649915   -3.78190465639655   12.79899647833003
H        -2.66279016864100   -3.07702840140058   11.23758521776979
H        -2.35478580538402   -2.16957491862200   12.72581075654148
C         0.76298470132890   -5.14104237292378   11.36746001294509
C        -1.06853079838041    2.49580938537424   15.80640722356165
H        -1.60504958478203    2.85489349625328   16.65984250975592
C         4.24987962596870    0.07365034742741   11.28952569109793
C         2.64061238705174   -0.47523770851577    9.03659497458218
H         3.58737868126278    0.03355029878056    8.92869088884301
C        -3.55186128405074    0.77616211200359   19.02863966243890
H        -4.52364577879926    1.23802269835924   18.91913750529250
C         0.57455930195460   -1.22228350539385    8.06121124499123
H        -0.08545851225563   -1.29288806067418    7.20792214980667
C         4.80706020531042   -2.42524690353153   17.10424375993762
H         5.01893867980762   -2.10740292557884   18.12550163352245
H         5.34708957111771   -3.35094550894923   16.92163760706961
H         3.73891897135295   -2.61831403016426   17.02713982518075
C         1.10992787918343    3.03786946155796    9.93300515976959
C        -0.50961556131300   -4.58989334775037   11.33343720216747
H        -1.15499473961084   -4.79908248258190   10.49191227757641
C         2.28433290405911   -1.04122242226573   10.25417476241468
C         1.65800737002009    4.54261438405684   13.36492555735634
H         0.98046593503334    5.38870502378438   13.48525637433747
H         2.63719958293403    4.93893912853687   13.10541486207745
H         1.73099180797143    4.02612460150242   14.31856634573498
C         1.06637395132274   -1.69771305006679   10.35841934216072
H         0.80038770111124   -2.14239013094316   11.30431226960044
B        -0.41132584883243    0.11659214066224   16.79315895031750
C        -3.20212830158930    0.17883204406953   20.22656417786477
H        -3.88782819456484    0.18326612580782   21.06189675773529
C         2.01946848139077   -3.80039085252021   14.68677966590078
H         2.91557303370279   -4.41275350232896   14.65009053015990
H         1.47992656675139   -4.00200672930074   15.61195495055877
H         2.30962153292864   -2.74411369959277   14.69209605392861
C         1.57662815048860   -4.87603720260194   12.45975476049274
H         2.56500953076926   -5.30841981623344   12.50248325618050
C         1.78985214144995   -0.56823738622189    7.94835594949677
H         2.08137135929855   -0.13200444022953    7.00253943705103
C         4.50644619087956   -2.64913940481289   12.83707098095641
H         4.43602265618868   -1.92715520951581   13.63543426469545
C        -0.96206900802226    0.50863023395364   11.85020761083956
H        -0.38584498733009   -0.25631590603097   12.38263157016776
H        -1.35598834344269    0.07739700783753   10.93437983716225
H        -1.78797863660797    0.81017793204100   12.49371864136527
C         5.20405129900076   -3.82895359477151   13.01316137253444
H         5.68325849153620   -4.03207944227506   13.96033151180412
C         4.68348476675797   -4.46305263789355   10.76582532689138
H         4.75392466348514   -5.16949119202449    9.95050546575620
C         1.50918026605320    3.31111034260078    8.51572002091351
H         1.63392624749283    2.37777294112847    7.97227524657747
H         2.44023398726253    3.87147170204376    8.47593226619468
H         0.73774394072431    3.89620853828665    8.01348097379240
C         6.45974436176835    0.83199113169309   10.71702341816545
H         7.47659615572762    0.60605238291058   10.42763683987993
C         5.29703769725953   -4.74123556625829   11.97560784153824
H         5.84605332936751   -5.66334323309405   12.10666560242930
C         3.85948796470658    1.39626906209240   11.44501288476564
H         2.83784351238558    1.60336609099182   11.72138541092433
C         0.21540260757709   -1.78694554929136    9.27314266692877
H        -0.72695819088451   -2.30615016970033    9.37215311544885
C         6.06244176367205    2.14898471058799   10.87402378874503
H         6.76670750176397    2.95241825829746   10.70843268518692
C         1.25813588339452   -5.98001129144715   10.23023804785982
H         0.45191009053602   -6.56977794376658    9.79860829073783
H         2.05281001045378   -6.64664414172419   10.55673986165466
H         1.65893716315636   -5.33228081729555    9.44953091624723
C         4.75646199281676    2.42731092928463   11.24004279601801
H         4.43182198260574    3.45140753993926   11.35781921950365

