70
CSD_code = KUMXEX | q = 1 | S = 0 | Stoichiometry = C33H24Cl3N9Rh(1+) | MND = 6
Rh       -1.18068534031073    3.52605776291336    6.86638786034360
Cl       -5.70570189012039    9.20812521100267    6.13420280719321
Cl       -5.79062570700757    0.60591851070274   11.75198514532516
N        -1.18367260099422    0.70622325999568    7.09546036449320
N        -0.62187775232437    5.32863341127572    6.01944320693522
C        -2.78120480324369    1.46481615278218    8.51426579902701
C        -3.68901705167843    8.23391809947455    7.63693102447522
H        -3.57223272050419    9.23885317579636    8.00951808338264
N        -2.33752437884574    3.55785283074476    5.21403598324840
N        -1.53094062235314    5.16880581922589    9.13215958790634
C        -0.51411569377372    4.37584808267775    9.46593229835987
C         1.63715632526551    2.79618137918461   10.06540187320436
H         2.48244937045795    2.15925103275532   10.26439075192703
C        -4.67564582794432    2.15101585299386    9.84566048459974
H        -5.42307927241165    2.88498979877186   10.10122235070700
C        -2.99124977282425    5.92153023518372    7.58230416014959
N        -1.85001967245812    1.73232069904748    7.54107306775243
N        -0.01179179331392    2.24571717637828    5.81712593024662
N        -1.32996568111362    5.63756300324675    4.97113092668750
N        -2.11018069287275    4.93481590416950    7.98917471871791
C         1.15006067393504    3.67299682909942   11.04039343147717
H         1.61851930271423    3.71950002201883   12.01057725451188
C        -4.85429061354854    6.65377210281595    6.23445595085426
H        -5.64682951845618    6.43662940979241    5.53637137418243
C         0.05579018322280    6.37774956210943    6.60292286033895
C        -4.68146514418539    7.95250633932417    6.70232028189888
C        -3.60998694799509    3.90375150282346    2.76395130657685
H        -4.11108982291974    4.02067485752290    1.81628440864028
N        -0.03189605871681    3.51054895810103    8.52445820403396
C        -2.85534326349645    7.23133468040825    8.07456721953004
H        -2.07995125163580    7.43135064557487    8.79669690123174
C         0.07439507979341    4.46768010842848   10.74204234351608
H        -0.35012850435938    5.16295518580739   11.44596286908530
C        -2.76854674747064    4.87735633649801    3.23599995188732
H        -2.56641998539410    5.78547804234886    2.69397252573816
C         1.16352320924618    6.13255822378762    7.42588589919967
H         1.53372115915008    5.12394081645934    7.53642560124485
C        -2.77996195933167    0.22744809303977    9.18721047357849
H        -2.03379702120516   -0.50321724671922    8.91858729800047
C        -3.75595571694028    2.41442746424550    8.85704271333938
H        -3.79762187158157    3.35431228291818    8.32748973260649
C        -2.12928814676109    4.69086697850043    4.47721294471192
C        -3.69796210854356   -0.03259695342617   10.17540154780330
H        -3.68511372611777   -0.97758114920300   10.69474845301295
C        -3.16086752521833    2.62320546447765    4.73715591917097
H        -3.31127330180078    1.74329145009660    5.35052935577207
C        -0.24621541033688    0.94912759381685    6.17694369164880
C        -4.64843536085722    0.92909503582625   10.51379316454644
C        -0.35125278965668    7.70570414817298    6.38735802927967
H        -1.18484434153568    7.88968614943770    5.72862206562071
C         0.47604981140887   -0.10690021905179    5.58859907588375
H         0.26064183281028   -1.11244328636720    5.90828337557400
C         1.01992462257221    2.75074997005711    8.83447018168884
H         1.38683495791902    2.08026612124620    8.06712134181402
C        -3.81338176828431    2.75086679467750    3.52969487015829
H        -4.47218548294151    1.96899034280684    3.19159316992747
C         0.90172962018707    2.50688511358255    4.88455757675315
H         1.04984742602842    3.54791352563796    4.62497718632058
C        -4.01972605694068    5.64835246172240    6.67021588230739
H        -4.19574405626357    4.63649635511295    6.33721253848158
C         1.81644305134118    7.17283784372760    8.04693330718066
H         2.67173297849362    6.98209002335924    8.67522179466934
C         1.63630908968119    1.51384540869949    4.26968570353460
H         2.36693708775036    1.77158163687895    3.52178510755091
C         0.30108398009823    8.74333549656260    7.01197065848034
H        -0.02000857359792    9.76058772732006    6.85515860905750
C         1.37627548437549    8.47990214629450    7.85603351170856
C         1.41796257809547    0.18113767900727    4.63354865510306
H         1.98472568219716   -0.60809886450755    4.16567958637998
Cl        2.17390084344001    9.77281339080773    8.65586766970547

