87
CSD_code = KUNBUS | q = 0 | S = 0 | Stoichiometry = C40H40AuO4PSi | MND = 2
C         5.75631865692428    7.77542450018319    1.07610087119469
C         5.04682066648396    8.44185283577841    2.00247815849620
C         6.40965756539993    8.52087912605154   -0.01060790259603
C         8.47661062973315    9.27410775134637   -0.82542505687778
H         8.18464365270842    8.91132754573912   -1.81417038873861
H         9.52798031527127    9.06894267261415   -0.63556014238681
H         8.28595154960977   10.34886996172434   -0.77598976604744
C         4.86127071413326    9.89397787060584    1.87984804845843
C         5.84381294195418   11.92561701223295    1.20256947757023
H         5.03017158156309   12.35910156067824    1.78898413971174
H         5.62832367130593   12.05175227734646    0.13879146483569
H         6.79342868188445   12.39574632021984    1.45342250526459
C         7.22405729415938    2.55468314288180    0.92846097685345
C         7.50222878955758    1.32222477448398    0.34377027443811
H         6.81614037367757    0.90006889281983   -0.37798306292235
C         8.65801757975764    0.64646641731211    0.68948698207934
H         8.87539459327443   -0.31022089492817    0.23752483362053
C         9.53647345659816    1.19339767272750    1.61210942861809
H        10.43738038061658    0.66035490306732    1.87733594574408
C         9.26420038694578    2.42364455161192    2.18836929064755
H         9.95220195227940    2.85209886756307    2.90172173654598
C         8.11271118473137    3.10793951964389    1.84433703811859
H         7.88784563139199    4.07284042584657    2.27942445250093
C         4.41758351773016    2.69688437162030    1.50642285299073
C         4.60079536109872    1.53314230298155    2.24283041226409
H         5.56842981405011    1.05166889895817    2.26558632681954
C         3.53859483803932    1.00030966519941    2.95236487721012
H         3.67872673683447    0.09558769545850    3.52611968385428
C         2.30167001541111    1.62374193657326    2.93202316235380
H         1.47832034042698    1.20330967113970    3.49018674556281
C         2.12050595520598    2.78936306472000    2.20347317017773
H         1.16182650356403    3.28530766331679    2.19348427939835
C         3.17695828584797    3.33014159983523    1.49682876047898
H         3.05160370150868    4.25095512387811    0.94115112677882
C         5.35963756076135    2.99126655052291   -1.15891018574199
C         4.43955843168647    2.00253476224072   -1.48896538553921
H         3.88670500871167    1.49546662926553   -0.71004496939918
C         4.23391639409828    1.67562646300112   -2.81788019196671
H         3.51969215458043    0.90718210601435   -3.07508130585146
C         4.93832197212757    2.32944360815263   -3.81554135075647
H         4.77192876109105    2.07011937882447   -4.85035324746908
C         5.85048162496023    3.32106488464855   -3.48881378445705
H         6.39255707866992    3.83676971694201   -4.26722763849834
C         6.05810969479098    3.65504977417811   -2.16447139263129
H         6.75653566776233    4.43676775151506   -1.89283111450884
C         5.07060430335500    6.09290559782245    3.90528910621508
C         6.44356500007707    6.22955868082490    4.10239088006949
H         6.91638794287020    7.17177753917450    3.86701402592162
C         7.20835046955410    5.18284476015550    4.58366362064482
H         8.27091008232560    5.31479514396784    4.73644293609245
C         6.61338241064969    3.96578300862460    4.87604357422713
H         7.20819836023996    3.14485378731668    5.25116926764431
C         5.25195108459877    3.81010048097347    4.68523034285280
H         4.77766105792164    2.86631490797528    4.91519921100582
C         4.49355236163921    4.86530220665202    4.20855407488286
H         3.43169110874458    4.73129146798084    4.06588822383881
C         2.42757955945293    6.93126774462871    2.54907231189924
C         2.25505689354844    7.01110939946556    1.16948541319937
H         3.02469580942287    7.47314854795666    0.56940527667832
C         1.11645061563875    6.51770018950660    0.55770281850817
H         1.00640744263822    6.59182001423719   -0.51498732600159
C         0.11550332053052    5.93631646575738    1.31774121212011
H        -0.77764819991162    5.55488069106521    0.84300463663956
C         0.26429896592059    5.85433933436191    2.69190012038241
H        -0.51600290537495    5.41058654112569    3.29554529741563
C         1.40913932149715    6.34443022245749    3.29505423403274
H         1.50645202726416    6.27247565011234    4.36838053202649
C         3.71372828981287    8.63321074994339    4.95020741289616
C         4.91763794469035    9.53929698961634    5.21999281929013
H         5.06099251320438   10.24530295319397    4.40746209259457
H         5.82765255698186    8.95337689671987    5.33406488232448
H         4.76228863111083   10.10817146514105    6.13694361197864
C         2.46068020093683    9.49811600984392    4.80568744751027
H         2.31582015057247   10.10656059018538    5.69857742750993
H         1.57644394550620    8.88038831448009    4.66553403831558
H         2.55251529569192   10.15730705848064    3.94810845497254
C         3.54141004606574    7.71187210475119    6.16226674027510
H         4.42450676717296    7.09491948842808    6.31414272295063
H         2.68694408234058    7.05142396045484    6.04008574965739
H         3.37962677936857    8.30601173337707    7.06154964963982
Si        4.02328249496914    7.58812992721480    3.34833540811257
P         5.72465225817804    3.50367514735843    0.54573959396647
Au        5.81268834671125    5.75169042924829    0.84010937239202
O         5.87071858956364    8.92818613452224   -1.01476937985479
O         7.74836167424067    8.59924453679450    0.18311911081154
O         3.80551505892765   10.44851083612441    2.09245180190356
O         5.97194567240291   10.54480096549776    1.49605111627262

