49
CSD_code = KUNBIF | q = 1 | S = 0 | Stoichiometry = C18H18AuCl4N6S2(1+) | MND = 2
Au        5.16394042427235    8.17372000239394    6.08521326673030
S         2.93001604702139    8.20515434070486    6.82315451787126
N         0.71964348578880    8.95635785429418    5.63035988672546
H         0.21156645362118    9.28514231159165    4.82057435423722
H         0.24840236110961    8.73186871116411    6.48995400303177
C         2.02861097488933    8.78378076480633    5.51230909907616
Cl       -1.95761141131061   12.63882789473945    1.40083445142998
N         2.60106698230834    9.08706234316479    4.33966836591629
H         3.60586796142892    8.91704207686147    4.23788133410841
C         2.33882803698141    9.91355936511611    2.20808933767097
Cl       -1.50776344543418   12.30575401802925   -1.68293049995609
N         1.84244826396253    9.61589271360891    3.35076899702361
C         3.77402875391514    9.70949051642027    1.82191072510186
H         4.02654701715780   10.31592330559487    0.95883264876187
H         3.95511319674384    8.66134774468751    1.57905378222318
H         4.44249879263606    9.99083527603831    2.63668481563264
C         1.40737549421195   10.49293947788000    1.24037249532371
C         0.29264680912502   11.19870251409250    1.69742711231499
H         0.14279176407138   11.32760397689137    2.75665678600573
C        -0.60333376131833   11.75993885278341    0.80789556744485
C        -0.40522359368464   11.61371216737929   -0.56803550100828
C         0.69578042977958   10.90071963649978   -1.02560704659738
H         0.84031845168372   10.78371946057081   -2.08769016103047
C         1.59638590266632   10.35116184410146   -0.13555204889257
H         2.42931419479797    9.78462559192035   -0.52014742563111
S         7.39824732396646    8.20397234610697    5.34778714924664
N         9.60761834285739    8.95457306167318    6.54180840846042
H        10.11578293465281    9.28419336892693    7.35118197050622
H        10.07859770254687    8.73070351912854    5.68187579715301
C         8.29854186838272    8.78250552168077    6.65949034935874
Cl       12.28414445358357   12.63873998469012   10.77022333598922
N         7.72590309595069    9.08583791117688    7.83215335319916
H         6.72102333128316    8.91638376976311    7.93428115270908
C         7.98785997647479    9.91296125518334    9.96354121941600
Cl       11.83440532038308   12.30613002942979   13.85412449619555
N         8.48433031080328    9.61531599795114    8.82091857112915
C         6.55271021212854    9.70847244701776   10.34965977633910
H         6.29978807596619   10.31532380705638   11.21232617701086
H         6.37200044418048    8.66046982495698   10.59330062076072
H         5.88434945858969    9.98879696067037    9.53448366624810
C         8.91908278361200   10.49285516526868   10.93119524686672
C        10.03366091297518   11.19870952754812   10.47398711681493
H        10.18359942786337   11.32687343351437    9.41469972247340
C        10.92978394811170   11.76004285845082   11.36333856374403
C        10.73153066234218   11.61428491769520   12.73928132885946
C         9.63068282308979   10.90114386570958   13.19704269521904
H         9.48618864505383   10.78439414798153   14.25916056313468
C         8.73021019028743   10.35109948073596   12.30713951622964
H         7.89699816845843    9.78503403618739   12.69182033926054

