53
CSD_code = KUNCEB | q = 0 | S = 0 | Stoichiometry = C22H25NNiS4 | MND = 4
Ni        3.74272362468087    3.03584487005826    2.54306480264160
S         2.09764346380810    3.31158786097631    1.01986238526169
S         4.65667140009633    4.45947527383826    1.05887462371493
S         5.51631902431963    2.95125022130168    3.69456504464404
S         2.54995148451430    1.76536611119016    3.74522938401764
C         3.19525410289152    4.32829278196503    0.19406943714414
N         2.91987421641800    4.92355486846837   -0.96360490141412
C         3.87352940089656    5.79093507317588   -1.65828865042498
C         5.13007009034175    5.03239969138339   -2.08416748245686
C         4.21109567530317    7.03604628331557   -0.83887855105950
C         1.61768151216465    4.70899321582974   -1.59130836703625
C         1.76110203717163    3.99565810499076   -2.93446101724232
C         0.83578162225506    6.01559542254379   -1.71232075743089
C         5.55183345674979    1.98156483393153    5.08010638366969
C         4.50959369975439    1.24559741226463    5.62247577195806
C         3.21261653149350    1.10192136322603    5.15268037354282
C         2.27354274242151    0.28316180082396    5.93386885878238
C         2.26227927786136    0.34408503985204    7.32705151574246
C         1.37242373593298   -0.42449137892866    8.05351546018288
C         0.48684262149539   -1.26901185746497    7.40475724851809
C         0.48695469623493   -1.33195550979276    6.02092712084230
C         1.36754572332408   -0.55826908354560    5.29013569879095
C         6.85747611960916    1.94629701261397    5.75609393984181
C         7.62563501958856    3.10391235055485    5.86877859854574
C         8.85115268083273    3.07335982794917    6.50551769908641
C         9.33596043508051    1.88533427296083    7.02754072234760
C         8.58729689787798    0.72633014595026    6.90693853438625
C         7.35578096186259    0.75396394254678    6.28013567591204
H         3.36010329386966    6.11878008308212   -2.56536997865762
H         5.73410211173799    5.66992157079832   -2.72418213772623
H         4.86296522326157    4.13569025756782   -2.63788040290313
H         5.72479150048963    4.74640516397414   -1.22273202688083
H         4.78751951097554    7.72390405239451   -1.45169947801091
H         4.79824456539457    6.77941175088931    0.03692891654634
H         3.30114957416134    7.53585399007496   -0.51584683360289
H         1.06324633177604    4.04820528957456   -0.91767507187268
H         0.77506260936715    3.73349195181848   -3.30788562818602
H         2.33578883256066    3.08087728996423   -2.81198435613172
H         2.25111880537870    4.62140665084697   -3.67644158104390
H        -0.17233861630722    5.79818371248705   -2.05427230474915
H         1.29469315421412    6.70084453855278   -2.42085041481146
H         0.77132047101888    6.50384977920988   -0.74310632779008
H         4.73942983168421    0.71078261413956    6.53590489063849
H         2.93124714466927    1.01845453089351    7.84131915068462
H         1.36842960290040   -0.36115882695176    9.13182394934098
H        -0.20378855319063   -1.87154132561669    7.97578618973649
H        -0.20352815169273   -1.98558634926518    5.50890540508032
H         1.37073088690247   -0.60780634483078    4.21188458268627
H         7.24526486380260    4.02899859990105    5.46302541132151
H         9.43164776341902    3.97969815840111    6.59331379474864
H        10.29567568119131    1.86095896912856    7.52193815972633
H         8.96567916185538   -0.20580760702694    7.30021460478417
H         6.79071214548441   -0.15981845189699    6.16852193473173

