67
CSD_code = KUNDIH | q = 0 | S = 0 | Stoichiometry = C30H28N6S2Zn | MND = 4
C         4.79004234506850    1.60974722972526    4.66336140591920
C         7.24445207970312    3.87338585323819    5.46699316457487
C         5.41264164443476   -0.79298718055176    4.96245762945067
C         6.73030280966687   -0.63998505272058    5.38578454376957
H         7.11842784350215    0.35361920773020    5.51520634783182
C         7.51240398643755   -1.75417747621057    5.62588300653132
H         8.53372438115987   -1.62310754607151    5.95297990697795
C         7.00200658565980   -3.02975796797352    5.45386659354536
H         7.61840811105146   -3.89493213445772    5.64528333671133
C         5.68975410195314   -3.18658225543364    5.03779069275891
H         5.27939956440568   -4.17625984087798    4.90143073431599
C         4.90027105799912   -2.08081850016140    4.79273557831949
H         3.87804059382464   -2.20740329184181    4.46429157547007
C         7.46571142844946    5.31787088531422    5.42520215109185
C         6.50549325032576    6.19837259558906    5.92164749226163
H         5.61851788071844    5.80497089180260    6.40004412159225
C         6.70675715368907    7.56527105332780    5.84926798419167
H         5.95679715288207    8.23520011424214    6.24245649630600
C         7.85681241238359    8.07131088012915    5.26881714313751
H         8.00463219037576    9.13800481440783    5.19348056429958
C         8.82103664057861    7.20290611512039    4.78297600286065
H         9.71934637344702    7.59701404860437    4.33054748649863
C         8.63670578830243    5.83694021494007    4.87272486460834
H         9.38749325583549    5.16179921842316    4.48760714807827
C         8.32804783718943    2.96240509715638    5.94683174817007
H         7.94156200815351    2.35617006588211    6.76576893514988
H         9.19328990291400    3.52248041507097    6.28749704234513
H         8.61318967998845    2.27818895985418    5.14774577970451
C         5.21052781740536    7.25167368989537    3.08265945972389
C         7.04420829319608    4.57660470266345    1.95296243474381
C         6.22355142226599    9.49770703287663    2.65858430768963
C         7.41119743776685    9.10470101645864    2.04713475328049
H         7.58203727887101    8.05748500321494    1.87743156530826
C         8.34402772712538   10.05475369672843    1.67567169951237
H         9.26259147527588    9.73790424022497    1.20335117391443
C         8.11308896208100   11.40146162846109    1.89977864398561
H         8.84612297222855   12.13741431270449    1.60628027358524
C         6.93050611267426   11.79723540776481    2.50356346764230
H         6.73795757522194   12.84473334574295    2.68275223270546
C         5.99308854781565   10.85676409632614    2.88140543993044
H         5.07255016216404   11.16942936696616    3.35439131045873
C         6.99182749198105    3.11587280566030    1.98117675083623
C         5.81782992454641    2.44073791802879    1.64980202717824
H         4.95917873418728    3.00220950370344    1.30652768929673
C         5.76482592844705    1.05956509181286    1.71064095593092
H         4.85038450160302    0.54992580516580    1.44619615151286
C         6.87279942211009    0.33614578008804    2.11653589378017
H         6.82558272297369   -0.74026801880952    2.18343374457219
C         8.04683632197260    0.99873989394556    2.43676333831986
H         8.91260397130449    0.43478329682443    2.75204246171660
C         8.11348943763336    2.37605568013327    2.35594170356313
H         9.02841289457313    2.89072680918022    2.61264245409211
C         8.19459180429582    5.27317155832034    1.30059164364834
H         7.80952408686252    5.95127089199427    0.53919971341977
H         8.87756417408562    4.56423617955984    0.84275902421592
H         8.72047228737406    5.88167336566648    2.03638870277717
N         4.57085031116649    0.27199028359526    4.67886568943987
H         3.64576777709282    0.01872530969319    4.35418873198353
N         5.91096979324510    2.09128360641533    5.10258448007732
N         6.10125811924744    3.42721346145077    5.06930735418803
N         5.24821040958194    8.60683562011774    3.08078029357755
H         4.44669036752905    9.02567420880044    3.53626628510101
N         6.14172045555611    6.57322033940323    2.48783187548266
N         6.07981792305685    5.22502732417177    2.51303293953220
S         3.42823834231473    2.48007148624177    4.02642421400001
S         3.82175479337815    6.64555319988864    3.93218536578522
Zn        4.71647415967431    4.45794464468146    3.89594427701115

