68
CSD_code = KUNHAD | q = 0 | S = 0 | Stoichiometry = C34H28AuClN2P2 | MND = 3
Au       -0.40040203833348    0.16473827695079    2.67490758734286
Cl       -1.26399152730976   -1.93206026138856    2.64509462331337
P         2.67470133161764    0.24076146818677    2.86649135910750
P         0.51138593080316    2.20382301709419    2.68105049887501
C         2.60473597824783   -0.85276708861895    4.32882516555084
N         3.31643304344809   -0.43783821382715    5.36670664613423
C         3.26142526973734   -1.13018453381170    6.48931493618211
H         3.87309678386529   -0.75133868903364    7.29925086432057
C         2.47693748598045   -2.26203670786596    6.64461470638384
H         2.45546016796189   -2.79245395029338    7.58414902372763
C         1.71786950535984   -2.68515877813954    5.56265734594344
H         1.08158492926716   -3.55470741050215    5.63777039477138
C         1.77791179403758   -1.97372811500499    4.37776021662158
H         1.19204729464010   -2.27230026883067    3.52163871074515
C         4.45086629135910    0.67483462629430    2.86968098707585
C         4.92456052881248    1.44605378329200    3.92918499849268
H         4.26444500029376    1.67943126522631    4.75107682835710
C         6.23284836468291    1.89089336851998    3.93108771742677
H         6.59929597504200    2.47672515171200    4.76192849365844
C         7.07037465404846    1.59792330225137    2.86648519826760
H         8.09222928996692    1.94861162441912    2.86776002524956
C         6.59007945071465    0.86536996674827    1.79427063691771
H         7.23525636689354    0.64704832666361    0.95514646066705
C         5.28291880720583    0.41150326153914    1.78751467856245
H         4.91274732782994   -0.14929454213394    0.94054500167092
C         2.62339221891444   -1.02252673683886    1.54821415527695
C         1.86821452347170   -0.79498482947565    0.40473540890707
H         1.32718612397002    0.13530384790456    0.29649686307381
C         1.80656480279046   -1.75284418640837   -0.59194126088907
H         1.20876763386166   -1.57234169954378   -1.47316604507445
C         2.50176278736844   -2.94126532207725   -0.45370601154234
H         2.44488312224477   -3.69436281491914   -1.22571427031960
C         3.27196871494013   -3.16633685966436    0.67691592905652
H         3.81997780884546   -4.09145945468696    0.78277540726633
C         3.33712989072162   -2.21278527214584    1.67409393452990
H         3.94054274424802   -2.38532663319963    2.55580421419646
C        -0.75485716117103    3.52568552799751    2.61619853755183
N        -0.30032736481230    4.70775656454074    2.21918313126693
C        -1.14746943507482    5.71809406874987    2.17724896125667
H        -0.73507229323728    6.66238238145931    1.84489238010706
C        -2.48589302151453    5.60092556749084    2.52758623148830
H        -3.14273430454225    6.45493959355010    2.47081376339510
C        -2.95539382379663    4.36559060972051    2.94704712892196
H        -3.99059704386062    4.23469882265977    3.22743278523073
C        -2.07151783035248    3.30016135322091    2.99469208427549
H        -2.37638666759541    2.30940758695856    3.30517300593627
C         1.48188769783053    2.68395568257861    1.23631643450895
C         0.79364528046982    2.67580112021010    0.02479488275215
H        -0.26857727129084    2.45758567302115    0.02089523802173
C         1.46639386700864    2.93281334999829   -1.15391757662358
H         0.93353859386989    2.92401838187450   -2.09351317480879
C         2.82862484505383    3.19028488733899   -1.12821835085555
H         3.35670693650037    3.38222354074327   -2.05053011068610
C         3.51239307530462    3.20108869356600    0.07596496261158
H         4.57383496511784    3.40053552757845    0.09658725212659
C         2.84466298732761    2.94722721647425    1.26116924895007
H         3.37974193618051    2.96236335485330    2.20010852934342
C         1.36502913555588    2.75385910348425    4.17501665228582
C         1.30049856596850    1.94548486564243    5.30463038057098
H         0.75792316394596    1.00857803603315    5.25542587931390
C         1.92203514383446    2.34602439807661    6.47237736219032
H         1.87933118512531    1.71585483372166    7.34809788206185
C         2.60296395449746    3.55255889039476    6.51183439858324
H         3.09932445656952    3.86006868687470    7.42049437087110
C         2.63826371735674    4.37268978817995    5.39448207203116
H         3.15458896320840    5.32068406529270    5.43683814541632
C         2.01127139513809    3.98482834961436    4.22450203983027
H         2.00175797395424    4.62811055991983    3.35585404238185

