81
CSD_code = KUNJIM | q = 1 | S = 0 | Stoichiometry = C32H44P4Rh(1+) | MND = 4
Rh       -1.19703998944697   -0.00017473358417   -0.00001731698711
P        -2.80738417076559    1.37697479200565   -0.89482204122414
P         0.38341575056878    1.64627253594002   -0.15760498918088
C        -2.24945715866463    2.43836625756853   -2.29008488894772
C        -3.87175612219652    2.59693484415183   -0.03873347730730
C        -5.37396279654511    0.36459998958673   -1.63600763509950
C        -6.17748771250056   -0.46954986674841   -2.39751899439022
C        -5.61741095365967   -1.31742459235529   -3.33819559230149
C        -4.24270805726580   -1.33595125432646   -3.52168562914750
C        -3.44100121967899   -0.50879928395476   -2.76021527614417
C        -3.99744559613984    0.35001993358283   -1.81482289230644
C         1.32839977333903    2.09432085354107   -1.66553088328722
C         1.76570660815480    1.53626928121255    1.05573175538674
C        -0.06805790468657    4.47837132152073   -0.15122309519235
C        -0.57763038617443    5.62044882444042    0.44528333041507
C        -1.28405554863111    5.53664379585943    1.63333701829304
C        -1.49346930998111    4.30199433585893    2.22852415497385
C        -0.99483383927585    3.16183056253854    1.62860905207078
C        -0.27513737038545    3.23902982093490    0.43974495137598
H        -3.12032501867374    2.82337386318708   -2.82035147691708
H        -1.64008814769558    1.85914681668901   -2.98172113636250
H        -1.66824483638797    3.27240182088996   -1.90070238712077
H        -4.56327035400019    3.03193849746294   -0.75973714785548
H        -3.24117834837448    3.38380854510685    0.37064279764134
H        -4.42339624687845    2.13560018430246    0.77558958162437
H        -5.82510511494562    1.01904659402789   -0.90610288844559
H        -7.24797423739718   -0.45409293399237   -2.25643312489748
H        -6.25027036363482   -1.96189739492245   -3.92870469517057
H        -3.80420181828348   -1.99219354211580   -4.25841242554027
H        -2.36395265136616   -0.50972391434147   -2.89144286202011
H         2.07454167055119    2.84976266549024   -1.42198966386580
H         0.66249663278446    2.46871558088446   -2.43923745247809
H         1.83289151160686    1.20920395557162   -2.04774202619869
H         2.29101164695758    2.49088334621555    1.08639484382137
H         2.46692970558612    0.75180829890167    0.78154872639749
H         1.35947023928312    1.32504107165399    2.04411867917682
H         0.48685929141539    4.56610892679409   -1.07352914805906
H        -0.41653228388363    6.58168602242349   -0.01898492710083
H        -1.67178166817490    6.43194193654610    2.09426646326857
H        -2.04645350645601    4.23258464322681    3.15316928697253
H        -1.16220048020685    2.18412606644628    2.06855800516571
P        -2.80735895190637   -1.37706022582152    0.89481925864159
P         0.38348164248576   -1.64632220166333    0.15774284063688
C        -2.24948331822612   -2.43853271422003    2.29002771337066
C        -3.87174819635568   -2.59695288385810    0.03869036633730
C        -3.99736282121037   -0.35006153199610    1.81482477925513
C         1.32831153528446   -2.09442573088671    1.66572890425736
C         1.76585583088026   -1.53624016259106   -1.05547629029182
C        -0.27510251066367   -3.23898231666052   -0.43978773998953
H        -3.12039811278739   -2.82350794374714    2.82024305808279
H        -1.64010203999792   -1.85934931465350    2.98168286559677
H        -1.66828200747354   -3.27256444241482    1.90061541893965
H        -4.56322032654253   -3.03196053496129    0.75973304385925
H        -3.24118013000290   -3.38379545437502   -0.37076752091997
H        -4.42340742628838   -2.13554943695012   -0.77557917122142
C        -5.37388594072298   -0.36460466211976    1.63608709101726
C        -3.44082334948414    0.50874806263954    2.76016419852315
H         2.07445590135876   -2.84984181698880    1.42213269932399
H         0.66232266843962   -2.46887386431979    2.43933341643600
H         1.83275326784345   -1.20931966064830    2.04803712008345
H         2.29108701938627   -2.49089384522259   -1.08609755180999
H         2.46707822804070   -0.75182021681866   -0.78117306013821
H         1.35971334268807   -1.32494566457390   -2.04388789209976
C        -0.06806666480776   -4.47836890370595    0.15107791120302
C        -0.99474645209591   -3.16164067748201   -1.62867179064220
C        -6.17733796308058    0.46955762102900    2.39766158629878
H        -5.82508166304099   -1.01905972433052    0.90622233751783
C        -4.24245358013665    1.33590833642469    3.52170140520479
H        -2.36376126122802    0.50962276898616    2.89131186193019
C        -0.57761849068099   -5.62037905786435   -0.44556843357102
H         0.48682178191161   -4.56618120619015    1.07339522728193
C        -1.49335835075490   -4.30173270614764   -2.22873131548825
H        -1.16202885982713   -2.18388820557798   -2.06854962274183
C        -5.61717349597664    1.31740132417240    3.33831654169081
H        -7.24783208570920    0.45413002118567    2.25663583497970
H        -3.80387287909712    1.99213331502820    4.25839884462155
C        -1.28397716051210   -5.53644366858830   -1.63365680603378
H        -0.41655961352615   -6.58165594988816    0.01863005289335
H        -2.04626514269112   -4.23221505293495   -3.15341418610828
H        -6.24997318261965    1.96190271911790    3.92885880946197
H        -1.67172885874789   -6.43168285860212   -2.09467637943262

