68
CSD_code = KUNMUC | q = 1 | S = 0 | Stoichiometry = C19H38CoN8S2(1+) | MND = 6
Co        1.30421867031394    3.49836176113717   11.50013775266622
S        -0.26858946092836    1.93566716518059   11.03166072162137
S         2.79709551618931    1.83816455276059   11.89023434738146
N         0.07344950606923    4.99624069969562   10.77296177140759
N         1.95481829287351    3.52405107841302    9.75097918481789
N         0.65230699441969    3.47197119428114   13.24891201786061
N         2.60819264624178    4.89359553165272   12.29712403098772
N        -0.42517568452813    2.74244178583022   13.58116160446520
N         4.46236831369688    1.10695152114212   10.00046166410661
N         2.99543377062969    2.75931382145772    9.38248673164204
N        -1.97159211334138    1.19686941799037   12.88387227686026
C         0.16741802063763    5.05512930315304    9.27291829235807
C        -0.91801910258799    1.97709005517340   12.65331374292615
C         1.27323140504584    4.11047522015463   14.18038479169790
C         1.36745768434142    4.23681674004373    8.85217050118657
C         3.44902559500563    1.92650022760953   10.27141045844706
C         2.51174990871408    4.88963349924316   13.79807963011581
C         0.08232294592445    6.24148648212532   11.55343758717926
H        -0.16448687183070    5.94536833254740   12.57738951347441
H        -0.71179045992899    6.91854334866304   11.21765572276194
C         2.67301016256309    6.17103694997772   11.57370932668161
H         2.91006452097820    5.90811837476116   10.53846249034136
H         3.50075862442991    6.78750529859569   11.94320937799170
C         1.83165999577008    4.23124741265470    7.43572221072291
H         2.25989770679424    3.25661601715111    7.21148687852031
H         2.61508194368123    4.97559110735460    7.29177811718121
H         1.02231739570017    4.44488524145464    6.74596795719071
C         3.75129912116763    4.15152795781952   14.33233785719466
H         4.65298773205368    4.69815783386649   14.06244971199759
H         3.80324118670701    3.14469737666810   13.92407683625824
H         3.71979178941427    4.07121269767190   15.41448647822567
C         5.09433028088779    0.98432024424320    8.70456143760767
H         4.87013230787975    1.89688535412954    8.15074721961387
H         4.66402020531237    0.13339318214783    8.16333873245092
C        -1.10560107879849    4.39959004431240    8.71037582187738
H        -1.98029841342354    4.97746881201788    9.00304222536886
H        -1.20625620633213    3.38058290336010    9.07716229793696
H        -1.07651764555328    4.36195757335657    7.62582068706594
C         2.46788275618412    6.27656436704777   14.44814810566308
H         3.26882033578019    6.91092373470923   14.08156467208696
H         2.60985059032761    6.16622795663314   15.51903697465723
H         1.51338614613174    6.76892298804021   14.29532187917013
C         0.80807239929042    4.05902797424362   15.59555798252189
H         0.33151344837443    3.09723953489068   15.77280904918634
H         0.06271952361539    4.83369743918961   15.77692161312918
H         1.62648029053640    4.19803859845740   16.29366239301674
C         1.39971465497396    7.02245685678662   11.57855050306139
H         1.37187151205766    7.66338220065927   12.45814339324021
H         1.46282350267852    7.69329312097057   10.72351876642318
C        -4.12322813420757    0.94965185728220   14.00222890363148
H        -4.59652059104868    0.84391712961535   14.97369383659144
H        -4.38811469973255    0.08609668233725   13.39648587476306
H        -4.51127617139692    1.84452833728639   13.52232122927000
C         0.27345689844863    6.46621397291393    8.68478773531131
H        -0.49386732587664    7.12082298521635    9.08604704098829
H         0.11935785575482    6.41105801200501    7.61131148066399
H         1.25130668615623    6.90550191989242    8.85106595699011
C        -2.61417338643627    1.04296822023058   14.17115099676526
H        -2.33906154163805    1.91013020246706   14.77280278628982
H        -2.23641144398801    0.14064675821254   14.66632803838259
C         6.59529159391376    0.79419483190182    8.86293697618575
H         7.06062678549507    0.70987775328757    7.88548532050366
H         6.80937982723574   -0.11293441089613    9.42345251174170
H         7.03583328205486    1.63945689233457    9.38561924262212
H        -0.83874604723201    4.57730094862093   10.96130460591948
H         3.49610473586254    4.43251234281199   12.09174731813369
H         4.71898245043896    0.43483730493859   10.70843315035358
H        -2.25963113994310    0.57397736811714   12.14367365454566

