62
CSD_code = KUNNOX | q = 0 | S = 0 | Stoichiometry = C33H21N7Zn | MND = 3
C        11.23916406494074    4.03854760574058   12.64303157178602
C        12.21040830750185    5.13456106200099   12.70910410840105
C        12.06546708539413    6.48909296209432   12.93493145145966
H        11.09168182072600    6.91456672498623   13.11865125241082
C        13.21384017561637    7.26816698225700   12.92017503522963
H        13.13837059968467    8.33042793082439   13.10192909194139
C        14.46166925349910    6.70831476980085   12.67425821195776
H        15.33422999601333    7.34527717214288   12.66866665302560
C        14.60637527329517    5.34901064674296   12.43501582087407
H        15.56930787242892    4.90553264624926   12.23726131976901
C        13.46563136304017    4.57134503173725   12.46263638231650
C        13.24655625982429    3.13769552673865   12.25117329854371
C        13.88309510138324    1.02389970899616   11.57932839323724
C        14.16853977956277    0.44780079252099   10.33916752242087
H        14.58329028318544    1.06627636481886    9.55855047902043
C        13.91510641770316   -0.89516829235820   10.12925027217924
H        14.14731037548934   -1.33332693736893    9.16865541669518
C        13.35975356549578   -1.68690528415426   11.11731071138398
H        13.14516594845935   -2.72960080119872   10.94250812297331
C        13.06398959050433   -1.13560104809615   12.36642276807491
C        13.34517455095492    0.22095930419556   12.59907581225839
H        13.35881766621576    0.58924858599483   13.62338990005466
C        11.45696075487356   -1.57474725466840   13.96355268608132
C        10.81488728000525   -2.40410274750000   14.98730116523343
C        11.22523310806838   -3.54512676086656   15.64800595515696
H        12.19376242032145   -3.97636938452200   15.45055905276944
C        10.34906951077068   -4.10349561492532   16.56801581527024
H        10.64066040067248   -4.99215255492497   17.10873029605444
C         9.10025953745077   -3.54263237032978   16.80668489415349
H         8.44305929969940   -4.00511828732983   17.52870609629182
C         8.68255101296103   -2.40295544002447   16.13402360171252
H         7.71308319825813   -1.96329500538774   16.30685449934679
C         9.55897867539037   -1.83987747560232   15.22760521242571
C         9.44899944165753   -0.67193619056186   14.34858251724865
C         8.28079545196517    1.01856047395605   13.29411880979369
C         7.31251177647556    1.03629585239363   12.28639736020083
H         6.63448954495880    0.20173716378224   12.19810113070256
C         7.24051354291004    2.11129970290276   11.41996019655366
H         6.48450185831134    2.11882453558445   10.64690718426656
C         8.12549455792041    3.16931724655981   11.51202640447408
H         8.08139866181799    3.99596876636286   10.82015770425722
C         9.10162846105806    3.17469481889407   12.51229543479729
C         9.16001855656734    2.10418169063264   13.41653624253200
H         9.75620486132816    2.20520938200961   14.32074647361148
C        10.45819942815876    1.53600955906113    9.68272197273941
H        11.09605407353696    2.38568582382758    9.88005511382840
C         9.77285148795216    1.41682316390207    8.48719226818379
H         9.86728928994077    2.18064664632361    7.73215760757208
C         8.96694527865630    0.30684928222920    8.28901594912314
H         8.41288636669191    0.18416036879024    7.37055724608232
C         8.88954254719528   -0.64277702472025    9.29507811718488
H         8.27817136050457   -1.52412946182466    9.18616924487239
C         9.61094378069056   -0.43981331504279   10.45783829627020
H         9.57915967898987   -1.15459377573441   11.26753395218912
N         9.97362822739539    4.22945184579797   12.61645583983299
N        11.91533400072381    2.85359213905422   12.45783910012994
N        14.15138756406727    2.35115627618122   11.80172929633393
N        12.52974603050422   -1.92107563853491   13.35659794726210
N        10.64065639478950   -0.50282122792780   13.67991910065260
N         8.34959203205834   -0.04306270693748   14.16155567086354
N        10.37901983294273    0.62770058927336   10.64965909812128
Zn       11.14408536084302    1.03339545518324   12.53886184980930

