80
CSD_code = KUNPEQ | q = 0 | S = 0 | Stoichiometry = C43H30IrN3O3 | MND = 6
C        16.15327124279792    3.29795539385901   13.63772986599429
C        17.38606412748776    2.72032219309892   13.35464085048081
H        17.69757144305406    1.82563797179733   13.87631464194929
C        18.23983523882333    3.27206108629226   12.41434926975495
H        19.19321128278137    2.80405769479121   12.21317141087031
C        17.88061098917641    4.42308828648251   11.72905450131127
H        18.55009818103830    4.84974074668056   10.99656541467727
C        16.66550826868090    5.02203683886818   11.98715813456938
H        16.39335907381963    5.91938936826026   11.45111328327837
C        15.80232257253725    4.46917640047646   12.93389963125515
C        14.50482806150739    5.02908645440680   13.27771891026886
C        13.92709002943112    6.14269729734356   12.66666471504982
H        14.45076703340562    6.64743484917123   11.87144949889864
C        12.68567799141185    6.58926328631950   13.07133603027499
H        12.22746692679134    7.44596055522793   12.60082377599057
C        12.03917010055024    5.91257614050662   14.09702128020357
H        11.06961309961648    6.22389970696993   14.45098521695823
C        12.66330807484996    4.81740997755334   14.66078875258396
H        12.17953655078883    4.27365405333290   15.46004338236887
C        15.78439626942760    3.29626853579591   16.42174549858877
C        15.90051461686148    4.58629429818125   16.92646913955159
H        15.44922376096596    5.41447676620455   16.39653286440205
C        16.58400850135238    4.83970189942309   18.10411601552017
H        16.65694167525758    5.85192385069326   18.47645364982792
C        17.17153191722403    3.80278480816761   18.81250214638595
H        17.69252508975983    4.00448207163156   19.73682362592131
C        17.09322614633585    2.51280520422458   18.32989355128542
H        17.55421487119596    1.70792866820614   18.88297752545668
C        16.41618897849127    2.25602688856321   17.13938472948484
C        16.29728598993046    0.93949938774280   16.53350402805788
C        16.86318187350480   -0.23659607807085   17.02337504854869
H        17.41632585849099   -0.22004488180910   17.94786813065027
C        16.70806540494839   -1.41708092122935   16.32514439516158
H        17.13850180659720   -2.33455772499015   16.69653880249661
C        15.99528444413407   -1.40107061945967   15.13305520692315
H        15.86093615493608   -2.29796316549245   14.55009806247099
C        15.44975398105879   -0.20684263368813   14.70544539598089
H        14.88489038265008   -0.14714403919408   13.78465661352929
C        13.27154685331148    1.85128017018079   17.42882379918531
C        13.37135942210019    2.98249374932492   18.20469671342282
H        13.13461312354383    3.94430040786999   17.77580488159067
C        13.79939848673632    2.90471560692477   19.53267846623563
H        13.86871881390006    3.81167855367208   20.11398521155686
C        14.14361965062724    1.70110559089843   20.08070120877750
H        14.49790959737305    1.63924119539718   21.09910740318326
C        14.03129796511841    0.51508046429179   19.32852065604541
C        14.36811974740323   -0.74167507322678   19.87357995879598
H        14.73022145676832   -0.77975503759306   20.89124711876450
C        14.23501834841854   -1.88669153823871   19.14083989201213
H        14.49360322627583   -2.84411443570213   19.56906680602996
C        13.75088717507074   -1.82777600251809   17.82618104947531
H        13.63569466174056   -2.74009522559630   17.25941273957794
C        13.42380049889687   -0.62580837401465   17.26418516723501
H        13.05213307980516   -0.59336825695164   16.24961914390571
C        13.56242352601098    0.57549153840596   17.98947560571360
C        11.83538939557390    1.55082404233853   15.62833442089947
H        11.09707389996731    1.21017689527505   16.35782761828668
C        11.39175004466820    1.50297509911338   14.27301718775516
C        12.27228302779127    1.61297284231284   13.14168510522834
C        11.67740394583680    1.46186758209996   11.84616423367131
H        12.34601196069339    1.54331644848504   11.00184495972074
C        10.35199071213457    1.23910007862598   11.67065332575533
H         9.95438588279596    1.14122089395107   10.67231243307668
C         9.47136768186127    1.13337077372562   12.77221880404277
C         8.06303366494038    0.89942061775622   12.65028447137915
C         7.31195532363877    0.81613709709623   13.77737406249089
H         6.24881969554668    0.63991577334485   13.74168153562169
C         7.87665968772502    0.95755106641546   15.09131378348151
C        10.01440426055813    1.26379167110132   14.05454019502351
C         7.44066489888216    0.74867222252826   11.29901629321095
H         7.89125451799743   -0.08672169053336   10.76479069095607
H         6.37312778338340    0.56854228536668   11.39206755067439
H         7.59322201948614    1.65096946013551   10.70823753312560
N        13.85664768362698    4.37310034219183   14.27113792184199
N        15.58307136644251    0.93077981139488   15.38258281909745
N        12.97418589933883    1.96416919635921   16.06287592141193
O        13.51870847144694    1.79051752716990   13.21100797898318
O         9.23362494875734    1.18738167729979   15.15456849205865
O         7.27734751115427    0.89759765469236   16.13962412011954
Ir       14.69674207096189    2.63830668227466   14.86069972359915

