61
CSD_code = KUNQIU | q = 0 | S = 0 | Stoichiometry = C28H20N6O6Zn | MND = 6
Zn       -0.00023432658888    5.07372131970578    1.97065879706218
O         0.45505267753781    7.01547482196154    1.96335857766666
O         2.14537338222293    8.44982958966166    1.96552749540329
O         4.54418861979085    7.60390129958578    2.02916684205493
N         2.14844735488375    4.92994805038474    1.99118328114775
N         4.91160151514330    5.37638004366645    2.06292912526671
N        -0.00021635412517    5.07415813491400    4.12902618931983
N        -0.00032733641447    5.07398346316992   -0.18363059663599
C         2.64739035051616    6.14062462476991    1.99656952054530
C         4.06575043811204    6.37843917962179    2.02950886150044
C         4.41220384004045    4.12909432567831    2.05843163884529
C         3.00801821473489    3.88221920817756    2.01859479738105
C         5.30176253007556    3.03624235346290    2.09426813665762
C         4.81730559829607    1.75802215647570    2.08789412285248
C         3.43373107413889    1.51709028799161    2.04527967326746
C         2.54209243104258    2.55421873906706    2.01108450833258
C         1.67635126399614    7.30575137851994    1.97275671870478
C        -0.39649360325484    6.14430165876773    4.80851603824171
C        -0.41295972077356    6.19105875944316    6.19237923795060
C         0.00095789105586    5.07524063694185    6.90224899380736
C         0.41114322411542    4.00997824885967   -0.86366580822579
C         0.42889965981394    3.96428351723386   -2.24757833241301
C         0.00090714722229    5.07497297624940   -2.95709702454111
H         6.35775545474447    3.25079782795564    2.12551167352319
H         5.49861868198636    0.92058950047662    2.11533940122602
H         3.07435693453048    0.49901708258579    2.03981788509447
H         1.47825785856159    2.38205279476146    1.97919534968219
H        -0.70350178491507    6.99356433772397    4.21657346079608
H        -0.74301574207747    7.08392630192212    6.69915974851667
H         0.00143598116362    5.07568235949809    7.98211734593309
H         0.72905676073105    3.16447590287183   -0.27232824673723
H         0.77204222867601    3.07697332865948   -2.75464497344307
H         0.00168196559303    5.07550431478846   -4.03698818953392
H         3.75394054407505    8.23113317133664    2.00339687312959
O        -0.45514999039083    3.13194964778731    1.96317494789834
O        -2.14511686610500    1.69716402198098    1.96536845379445
O        -4.54412852450190    2.54259161121368    2.02927293145211
N        -2.14892520767092    5.21701737372589    1.99117317540590
N        -4.91199344140757    4.77005405239347    2.06295857794659
C        -2.64764816307684    4.00625565668542    1.99660405158637
C        -4.06595290455383    3.76815433160786    2.02954764995379
C        -4.41282569377378    6.01743178536669    2.05847223501473
C        -3.00868779188035    6.26457534638000    2.01862927291269
C        -5.30257659631359    7.11012362804565    2.09432834450378
C        -4.81833698368349    8.38842624700196    2.08797403468425
C        -3.43480446428130    8.62961481831235    2.04533588612428
C        -2.54297833039403    7.59264889987748    2.01110906288504
C        -1.67637250805453    2.84134345380350    1.97312919854630
C         0.39660095436965    4.00452632899018    4.80900253220232
C         0.41424671823548    3.95885362302267    6.19289123447569
C        -0.41128292845721    6.13846565028381   -0.86326003859557
C        -0.42779638942560    6.18516509354732   -2.24716169712398
H        -6.35852980097329    6.89538264210578    2.12561055014511
H        -5.49980084104740    9.22573425967398    2.11546390691515
H        -3.07562766563620    9.64775710656449    2.03988156179557
H        -1.47916415590320    7.76497790343418    1.97917422058326
H         0.70311285798300    3.15480679622348    4.21744040306155
H         0.74472351279081    3.06637842993582    6.70008570091992
H        -0.72908173197265    6.98408450197117   -0.27149653118205
H        -0.76973200294521    7.07353693981154   -2.75398016581988
H        -3.75374581558665    1.91552815336596    2.00360937753622

