60
CSD_code = KUNRES | q = 0 | S = 0 | Stoichiometry = C31H21IrN4O3 | MND = 6
Ir        1.54612462592236    8.46098094026490    2.03881502097154
O         2.33504583465746   10.40246654549385    2.72890995536531
O         0.19004687750041   11.11573205797612    8.60403387207192
O         1.47172333294993   12.80782074000412    8.29677740788758
N         3.01966121581684    7.37672411880987    2.84221768872455
N         0.09690124381750    9.54010418930342    1.15420235821568
N         0.78384082831062    8.67011648291395    4.09008460406022
N         0.95101036378699   11.77239466720776    7.90182384141831
C         4.12697176511996    7.90038537680102    3.36293223538039
H         4.24033036702729    8.97190363029459    3.26996363709919
C         5.09574801125106    7.13791546084069    3.98569782831976
H         5.97472027571869    7.60869460822473    4.39498928896199
C         4.90834050523433    5.76426467608717    4.06933843109477
H         5.64194332235292    5.13753551171702    4.55311367979532
C         3.76902924591933    5.21355819272655    3.51621948309515
H         3.60427900541892    4.14941223780524    3.55966715095393
C         2.82882730620137    6.03664727113788    2.89758328533081
C         1.60068244674417    5.58948813603539    2.25726035660589
C         1.18728305969817    4.25872010072740    2.19823155909528
H         1.78133440126794    3.47839889176603    2.65041463411447
C         0.00805130883617    3.93120214660300    1.56128674002342
H        -0.31457843205963    2.90166297862282    1.51549261382074
C        -0.75987701759987    4.92812890331562    0.97793052419577
H        -1.68140860776487    4.67009603495243    0.47590091804723
C        -0.35341640051428    6.25111606203804    1.03520031722180
H        -0.97060783680435    7.00668696934906    0.56831434687059
C         0.82697461790181    6.61827118492277    1.67328434470815
C        -0.98347155861009   10.01469000405938    1.77131558912904
H        -1.14358538533203    9.69272435923450    2.79147504640879
C        -1.88355393913303   10.87291386001978    1.17132761662022
H        -2.74040973727212   11.22843326785846    1.72032670124974
C        -1.65343771887595   11.26388322886323   -0.14121372823249
H        -2.33029075225048   11.93961773619584   -0.64140784464922
C        -0.54253707758760   10.76846491528912   -0.79273771064298
H        -0.33990779715633   11.05428607475370   -1.81171978030347
C         0.32777590324891    9.90099070412803   -0.13147632350632
C         1.52077775413495    9.30859672530480   -0.71511517992404
C         1.92777544340954    9.50708414059874   -2.03481858894444
H         1.35492716559695   10.13742934070087   -2.69865000948030
C         3.07218899613389    8.89583813660695   -2.50265187116015
H         3.38891747703975    9.04834770493043   -3.52380721529286
C         3.81393032352223    8.08426133209389   -1.65752673611311
H         4.70950964797919    7.60369255240181   -2.02500659323538
C         3.41412486808517    7.88540188879927   -0.34657440404020
H         4.01195295481516    7.24305729938870    0.28560679292469
C         2.26681071302457    8.48805967105039    0.15762229739363
C         0.04874049592403    7.79152887470038    4.73822053311255
H        -0.23550419455912    6.90078586635609    4.19458303140185
C        -0.35071938231092    7.99127458310405    6.05847652239068
H        -0.94588088654203    7.24213776512478    6.55629551420814
C         0.01680079656187    9.14280171647264    6.70844739474309
H        -0.28773218797355    9.31605652770561    7.72718967256631
C         0.79594153944161   10.11127816207487    6.03984167340322
C         1.24755485569152   11.34391604726916    6.59188188517628
C         2.03260170242593   12.19902665282699    5.81177080829718
H         2.35415570122425   13.12504940743559    6.26578869389648
C         2.39513466468909   11.90735742189830    4.52552484794540
H         3.00125806978044   12.59146555536624    3.95229635747167
C         1.99314759326952   10.70359895245034    3.90645784397486
C         1.16802228488986    9.80652140899664    4.70297103975982

