38
CSD_code = KUNROA | q = 0 | S = 0 | Stoichiometry = C20H12O5W | MND = 7
W         0.34717469230093    2.32054525949407    2.74438421533539
O        -0.26337930266203    2.43957178485052    5.85481143892939
O        -1.35276655093232    4.89716017911223    2.18189137837053
O        -2.22756998370533    0.57236561029145    2.70934531124799
O         0.31066106881312    1.68980440125794   -0.33445582224246
O         1.91093411352421   -0.26002799305060    3.60531292508596
C         4.10067701212298    3.85578970535442    0.34620935843487
H         4.00532793829797    4.88940135831525    0.64540320873930
C         4.94173198279101    3.49848205241268   -0.68849889588921
H         5.51056350449950    4.25894161213968   -1.20292752041584
C         5.05643351827058    2.17026984203232   -1.06859546887564
H         5.71376512423668    1.89525033382362   -1.87969208717653
C         4.32426086960997    1.19673095890960   -0.40780922225488
H         4.41219578651472    0.16164566182458   -0.70252278042221
C         3.47415192486854    1.54324174311093    0.62413782082470
H         2.90175380590745    0.78181302073072    1.13537436826789
C         3.35397832937943    2.87841820674467    1.01364090791820
C         2.50519005188610    3.29020285808475    2.07741930443094
C         2.06865222663653    3.95717578222499    3.02023908831334
C         1.78292457710219    4.77453685951008    4.13931020322156
C         0.88286259082834    4.25414838990647    5.09273596385244
C         0.60543750346347    5.00233997096232    6.23875316988830
H        -0.08103894276248    4.60826213654413    6.97283757139920
C         1.18148558756809    6.24570690518759    6.41127989592476
H         0.94912576801384    6.82878910083521    7.28995443924919
C         2.05612716081459    6.75604795652637    5.45853898901177
H         2.50014508405274    7.72947199636004    5.60499742679057
C         2.36469215122375    6.02649247611156    4.32589339892047
H         3.04955725904372    6.41491875844280    3.58655029232045
C         0.29090245900974    2.95238266042138    4.77572350403090
C        -0.91505245498263    1.18957155582100    5.79891014261829
H        -1.05892655268720    0.87162814623957    6.83141552023935
H        -1.88635257880812    1.29268585288093    5.30918296418559
H        -0.31567847990362    0.45173454805039    5.26009195531056
C        -0.72127970774572    3.95857464772239    2.33982136344137
C        -1.28998879712004    1.23313883339901    2.79381098277415
C         0.35627328171252    1.89784404914950    0.78828169847535
C         1.38544797881067    0.69804277825567    3.26064298972390

