49
CSD_code = KUPBOM | q = 0 | S = 0 | Stoichiometry = C17H30CoP | MND = 8
Co       -0.02485779348479    1.46609686193770    3.77226359034025
P        -1.46260188380606    2.94189932634249    4.65046305157438
C        -0.01319147471420    2.77526226032000    2.17421112966525
C         1.34968246122993    2.53184121822582    2.48290290511886
C         1.56102555378802    1.15599924472777    2.33871843888791
C         0.36408555891660    0.56177304074026    1.83009161398085
C        -0.59708289049902    1.56054047789618    1.69891239383682
C        -0.71284862799633    4.09970569810559    2.21020703029566
C        -1.88476879630510    4.03002124609876    3.19652553895499
C        -3.19944715858665    2.30926387372986    5.11025894305182
C        -3.51388466516805    1.24478222741148    4.05145171855635
C        -4.33509064395551    3.33368252709807    5.10351107067717
C        -3.13193843231786    1.63422642105798    6.48002422770012
C        -0.87964791127756    4.22064076607645    5.93831082459441
C         0.23361070908861    5.02196646098775    5.25854552928315
C        -1.95609150347439    5.18057314880275    6.43774329523538
C        -0.25255761352154    3.49634889119592    7.12993420007119
C        -0.18737937111351   -0.28580099501220    4.75398388969312
C         0.80225411870876    0.50717714158792    5.33295700487578
H         2.09320620590171    3.27895187161231    2.70893100638302
H         2.50586962032926    0.64448492347769    2.43928791695562
H         0.27551925006147   -0.45962540123668    1.49513511878171
H        -1.56382322527524    1.46877747923320    1.23096935325901
H        -1.09276911339412    4.34816191663902    1.21287707936123
H        -0.00268401677265    4.87686960073675    2.49477154500649
H        -2.21140562998860    5.02485728649047    3.50885511086651
H        -2.72056338403887    3.54000594840901    2.69358646002754
H        -3.76377834583300    1.69994943377748    3.09569176641843
H        -2.65995640488366    0.58512064536520    3.90157833112264
H        -4.36631064989904    0.64350322439408    4.36442333855554
H        -4.27959013513603    4.01467823545802    5.94527534436333
H        -4.35491884750475    3.91592183668965    4.18642946630272
H        -5.28263354699969    2.79946344293608    5.17568147515630
H        -2.26578975682387    0.97874083755994    6.53901751923652
H        -3.07087056090529    2.36946755688512    7.27873678634283
H        -4.02721464755385    1.03621611199884    6.64824406153082
H         0.91653392537497    4.34650727891454    4.74450261478561
H        -0.16661563968221    5.74051331244164    4.54799306199051
H         0.80145668059262    5.57380439964648    6.00687688874862
H        -2.53263792378804    5.60712503960224    5.62057938537306
H        -2.63244150671296    4.68807497448871    7.13099715201651
H        -1.47872468177450    6.00239920726715    6.97184821033716
H        -0.93430591716368    2.78159934467006    7.58038425727567
H         0.64341482760970    2.97165949730752    6.81081003890540
H         0.03170615745212    4.22198583614422    7.89182035419243
H        -1.11495631876273   -0.45500511557228    5.28820956359039
H         0.09726379878271   -1.10670058513250    4.10528131364156
H         1.84626227331271    0.29439845390080    5.12850230015223
H         0.62248787796279    0.93329356855817    6.31148678292731

