63
CSD_code = KUPDUW | q = 0 | S = 0 | Stoichiometry = C20H29N3NiO4P2S4 | MND = 6
Ni        6.72435569704381    4.01633196923592    9.54333237353890
S         4.62254373089484    3.96472821983183   10.51960700770974
S         7.56541167885215    5.30735521409906   11.16630291256148
S         8.74415569234109    4.05093520702150    8.43673202626997
S         6.07608531332600    6.16782355371274    7.73659478189294
N         7.50410312119020    1.92958061345676   10.30837712256628
N         6.01141428136374    2.77833860398344    8.24073527997574
N         5.63239255332942    0.77079385381332    7.41693457110803
P         5.62675962788399    5.23805936588706   11.69406829994838
P         7.73231529983659    5.28367771555950    7.15873933420614
O         5.46353318977258    4.93941444960574   13.25306006576674
O         4.92891691253108    6.65822777056384   11.76729784889756
O         8.82960549367670    6.34151978502163    6.63005813526841
O         7.45074749148167    4.49213947452338    5.79341965372406
C         8.44765107607186    1.69113920035430   11.20490740637770
H         8.55551364187387    2.43207669104734   11.98609715126794
C         9.26958058923204    0.57504578503663   11.16363293639854
H        10.02168357869859    0.42201890048766   11.92057003746156
C         9.11375254506888   -0.31967145417420   10.11792027577977
H         9.75175374467751   -1.18695586266705   10.03303785302680
C         8.14027439810424   -0.07768472174284    9.16496503156371
H         8.04694344632734   -0.73014924831181    8.31176767775362
C         7.33512430362899    1.05294147205091    9.29841212846010
C         6.33116314568796    1.47862031653472    8.34042830008133
C         5.53054579472227   -0.56640189718460    7.17219906346448
H         6.08265959481549   -1.23103249635231    7.81487343634826
C         4.72723913267753   -1.01169931699689    6.17333743239125
H         4.65350878451168   -2.07035961087270    5.98569662771772
C         3.97651411727455   -0.10518609927504    5.38576507245241
H         3.35451694254648   -0.48470709037836    4.59164393109779
C         4.03038609954766    1.22872839036317    5.65875777499242
H         3.45586985564904    1.95466238222726    5.10735275577249
C         4.85676053267662    1.68399727140821    6.70110817906801
C         5.12254883682143    2.92759569694353    7.25344048352337
H         4.72552022567864    3.88609306558872    6.97901110825367
C         6.24412984129362    3.95044565358511   13.90818957928344
H         6.11733224616766    4.15672392223305   14.97486924046957
H         7.29903099611800    4.08827303332276   13.64005623747855
C         5.79019078659547    2.54129011625675   13.56617096004939
H         4.73337791947399    2.42525960558884   13.79425262323804
H         6.36380912194654    1.82005220320191   14.14263506039271
H         5.93851259214507    2.34962134259368   12.50450207809500
C         4.55513096516292    7.36668619439258   10.58114134041100
H         4.16681528566158    6.66420708460151    9.83495160832171
H         5.44187585902332    7.85101667127475   10.16102471746647
C         3.50250065425334    8.38957089603694   10.95900070017585
H         2.62785058013972    7.89090538711120   11.36865583043623
H         3.21444300517231    8.95079398358379   10.07500272177504
H         3.89658253616952    9.07278856070725   11.70693617283253
C         9.34647188475619    7.28824401288628    7.56176757500557
H         8.51803413878886    7.89312544615374    7.94894893212856
H         9.80706887415480    6.75150584154521    8.39988338768932
C        10.36309538642966    8.15460713178197    6.84417822548732
H         9.89134545150778    8.66421154490858    6.00801275931693
H        11.17493016693265    7.53921872831982    6.46492806881629
H        10.76495218035461    8.89184441044031    7.53332434996834
C         8.47663309684058    3.75542435948623    5.13286896597044
H         9.45607391150345    4.07690390996358    5.49620513253650
H         8.38740583630742    4.00451585526823    4.07168575066231
C         8.29529205019990    2.26299894257471    5.35762923683678
H         8.41270666984050    2.03695572504498    6.41540223713604
H         9.04454984040374    1.71568463311285    4.79200970551972
H         7.30410765286680    1.95442763367948    5.03218272580573

