47
CSD_code = KUPFAE | q = 0 | S = 0 | Stoichiometry = C18H19N3NiO2S4 | MND = 6
Ni        4.28316023580596    7.86309930586242   10.97891324754325
S         3.59366089826653    9.02443218708874   12.77100432733440
S         2.43077196069342    8.85030450524498   10.16222038513850
S         3.19744363332478    5.48554230698227   11.94287663099972
S         5.86396334133880    6.69972778313765   12.11742908423883
N         5.76024470397265    9.41296505641856   10.07584249097332
N         4.78748145359312    7.04574283128055    9.27653929403104
N         5.97130862054105    6.93180552203166    7.42093345344676
O         1.10026078096588    9.73069879007934   12.19496415994055
O         5.03166265611263    4.55851491528211   13.45406402968670
C         6.03137869102782   10.63838185454134   10.48900096428212
H         5.84320928560597   10.83403452375408   11.53709298852968
C         6.53108769877168   11.62611898555792    9.65260079115266
H         6.74948724390415   12.61011588252738   10.03529756619420
C         6.71875770639925   11.31882341233792    8.31491951657378
H         7.07062819508733   12.06826546371069    7.62111205944128
C         6.43871665878282   10.03886815474494    7.86973119798145
H         6.53134039901805    9.80401167979385    6.82187247420547
C         5.98313084362029    9.09134959512966    8.78713068974749
C         5.62340001430202    7.71969276272219    8.47333562524356
C         6.85951058928549    7.09993338584123    6.40043541382448
H         7.42763211180428    8.01433530770711    6.38231599570100
C         7.02881151301694    6.11774150586604    5.47937807841057
H         7.73310682227825    6.26138659433231    4.67631703106390
C         6.30278624637823    4.90546425338319    5.56805790835472
H         6.44717780441511    4.14625237534423    4.81683197763124
C         5.45291692183203    4.70613098628384    6.61425957104019
H         4.90055512179413    3.78968730256649    6.74222155823931
C         5.29061202971254    5.72253464320081    7.57183089867456
C         4.56200674572614    5.84035478485557    8.74695524084956
H         3.90308982937829    5.13015755267252    9.20869256711885
C         2.25276477055207    9.24362516540766   11.78286755694153
C         0.95315771394585   10.02218848466553   13.58172929655142
H         1.69560063937241   10.77783293147001   13.86851031317471
H         1.15111484506943    9.11126502108070   14.15977554285396
C        -0.46044058696895   10.52198643466570   13.81065880332974
H        -0.64039718557018   11.41667628704644   13.22076078422104
H        -0.59886068488090   10.75246591947457   14.86281792543222
H        -1.17602149976016    9.76016675876004   13.51399243556899
C         4.73143878148065    5.50734117514170   12.58018476986920
C         6.33108569330699    4.49322958227492   14.02336769534002
H         6.68793062803053    5.50729432613851   14.23694205007053
H         6.19559295863056    3.94416501399001   14.95853055941130
C         7.31055586810564    3.76924109567280   13.10940985857540
H         6.93481217671698    2.77683358307444   12.87275633319291
H         8.27203056272722    3.67871551935609   13.60625196152849
H         7.44123456247016    4.32879849150998   12.18646689634634

