71
CSD_code = KUPGEJ | q = 0 | S = 0 | Stoichiometry = C32H36HfN2 | MND = 5
Hf        8.26629558958386    4.34303443859993    2.89456773017627
N         8.82218917429447    2.60025737952034    3.90785627731385
N         6.76047637654796    4.00871091324271    4.68605619083216
C         8.31828923558730    2.29359760462290    5.23558986351453
H         8.16037814592364    1.21227255347483    5.36607508679732
C         7.03019264361022    3.02717442947564    5.53404019593708
C         6.19844248945781    2.74690107600697    6.60988179074591
H         6.43644460061752    1.95190524434439    7.29864857633173
C         5.05154336542802    3.51413979344688    6.75624203178973
H         4.37050602949504    3.31668164883626    7.57151322397809
C         4.77033486222086    4.52488630724010    5.85264674371041
H         3.87025875902206    5.10755336409091    5.96155518716178
C         5.65940496913860    4.76608383086423    4.80172733710341
C         5.51242528024833    5.77306510518237    3.74552789918826
C         4.48630122126317    6.72116167443613    3.78222843333518
H         3.78774567779754    6.74909823667983    4.60685676308839
C         4.36332943311963    7.64787966914316    2.76709910510023
H         3.56989370698846    8.38129479676067    2.79604703332004
C         5.26608240822129    7.63435267689446    1.71476052885963
H         5.17051369134229    8.36009320288424    0.91820133112532
C         6.28893181563764    6.69812726966207    1.68970697015203
H         6.98431806622447    6.71837930521878    0.85488872819628
C         6.45611045743594    5.72686211127827    2.68447952994154
C         8.42683723366190    3.77337306945649    0.72142973689998
H         8.88154329344518    2.79277136969200    0.53663905579541
H         9.02817533639393    4.49844185852097    0.15637162248672
H         7.44457573392719    3.75877267680709    0.22930457996122
C         9.74617341383263    5.98301396736216    3.38378283928148
H         9.26983721532585    6.75679683823498    4.00323233931654
H        10.07495426780063    6.49668130125097    2.46996011529724
H        10.65910069418324    5.68422952078344    3.91100060305000
C         9.21143675408453    1.49425844716020    3.14261608825772
C         8.27448145119361    0.55553195117349    2.66349930641907
C         8.72322954989228   -0.54601661241539    1.95048490938053
H         8.01346274389007   -1.27824409525503    1.59328038273969
C        10.06574751469887   -0.71668733441908    1.66964906566535
H        10.39622233183223   -1.57929899975727    1.10956955223455
C        10.98068978897472    0.23122954196486    2.09133519927480
H        12.02441397741639    0.10284168226469    1.84566475552859
C        10.57701840508389    1.32575448744676    2.83728249769126
C         6.78845365638927    0.78674948369848    2.84042543566323
H         6.64641838210383    1.78675144962116    3.27772300492480
C         6.15276796131216   -0.25778367786529    3.76152523912213
H         6.25197345527053   -1.25192535816603    3.33114816258633
H         6.62947397818637   -0.26448725818247    4.73950940130117
H         5.09379742499108   -0.04635588851838    3.89921541073905
C         6.07294564070732    0.79011741003320    1.48584732435935
H         6.53893340905218    1.50933182368530    0.81695446705671
H         5.02795428856317    1.06524829353795    1.61755002981793
H         6.10963472152324   -0.19087914651841    1.01889866565944
C        11.56993557795636    2.36125870757395    3.31040660918571
H        11.06892974636757    2.97296973214119    4.07029249702954
C        11.95090486269243    3.27913547161324    2.14541665335107
H        12.67377129912566    4.02392213419433    2.47215322111607
H        11.05941369154636    3.79208524252096    1.77451833444532
H        12.39114576000605    2.70300933529653    1.33377312536966
C        12.81139195580966    1.73519431405665    3.94577514543286
H        12.52404185602806    1.02818774943416    4.72070433992151
H        13.42503623829955    2.51030315552298    4.40035563434765
H        13.41678309407238    1.21424787991333    3.20801970612683
C         9.37276282515940    2.74590017561060    6.23392673779225
C        10.17803054043687    1.82603147115295    6.89073131469206
H        10.00646085960813    0.76792586897571    6.75079856050878
C        11.20686692929591    2.25714952533243    7.71093844047305
H        11.83169732761229    1.53332930349040    8.21360478297484
C        11.43576467950045    3.61057047919579    7.88568834635369
H        12.23758166584225    3.94631827789952    8.52651269374970
C        10.63363448979676    4.53379172916228    7.23334524873433
H        10.80906512424676    5.59125606011114    7.36699993463201
C         9.60973829402145    4.10522045699871    6.40903469499375
H         8.98768255962485    4.82716349629880    5.88960763055592

