17
CSD_code = KUPGAE | q = 0 | S = 0 | Stoichiometry = C4H6PtS6 | MND = 4
Pt        0.02957224699588    3.09552156223653    6.83966919685655
S        -1.45123521462108    1.29076888091989    6.86325640600654
S        -1.15783483520291    4.14599444101802    5.15563947062133
S        -2.85033436533370    1.68408953091823    5.45819788703148
C        -2.46733730316049    3.17413793350870    4.74455282044780
C        -3.37528805673375    3.63668523256391    3.65483505354613
H        -3.68651624099054    4.66386712536483    3.83830032617800
H        -4.25158991806322    2.99729510287094    3.58613587917991
H        -2.84801390203193    3.61787591569771    2.70069544999154
S         1.51139718360169    4.90090529780611    6.82028748347516
S         1.21890161854869    2.04957789408780    8.52551063714423
S         2.91278057061782    4.51029974528465    8.22394505704421
C         2.52891651554297    3.02038074631953    8.93734833204723
C         3.43559210907738    2.55781566728339   10.02812129862477
H         3.73616992980462    1.52619267539788    9.85235883403967
H         4.31807771023146    3.18940690202658   10.08931784017981
H         2.91134195171654    2.58988534669553   10.98362802758576

