53
CSD_code = KUPJEL | q = 1 | S = 0 | Stoichiometry = C24H24IrN4(1+) | MND = 6
Ir        9.68878706441719    9.51607201847285   12.33050686784180
N         8.38038846683953   10.30541862233818   13.66562420809521
N        10.98947821515362    8.58274025867749   11.08322482895390
N         8.88883191567769   10.53504647844856   10.36051262309713
H         8.92074181364554    9.89949584625910    9.56772407871721
H         7.91660904170497   10.81529695594813   10.45800228571358
N        10.65092675317679   11.66813563117713   12.35018234808003
H        10.60876425745562   12.09093157401710   13.27372506429858
H        11.63564753964410   11.63527472476928   12.10014755613824
C         7.26013246608388   10.96120371491767   13.36456224220692
H         7.00949071555202   11.04205250724608   12.31610985717748
C         6.41880144011985   11.51078289619521   14.31074395082234
H         5.52515336328266   12.03040792297850   14.00647361549984
C         6.75046058563900   11.37004708063994   15.65250742357474
H         6.11973624299997   11.78612172342380   16.42201731487324
C         7.89612502576393   10.67361867023562   15.97892134394992
H         8.16806912976335   10.53313695605058   17.01146855584519
C         8.70147171503350   10.13852794256007   14.97221950713142
C         9.90084017338950    9.34791260744528   15.20071254354067
C        10.42464945536717    9.06472053725687   16.46295923900171
H         9.96086106220753    9.46205311612186   17.35240973742771
C        11.54644617590112    8.27040831322505   16.58151207175953
H        11.95108679453002    8.05016272176355   17.55705764111206
C        12.14640465391714    7.74898904479305   15.44604774986380
H        13.01717370097652    7.11778315334236   15.53980986945299
C        11.63398548520812    8.03064966202062   14.18858343381490
H        12.11979351796510    7.60148487364709   13.32410218736100
C        10.51450694403620    8.83676715710391   14.03899798009049
C        12.16533105749013    9.06378889757236   10.68114873748110
H        12.46782814137966   10.01724338781807   11.09109081196497
C        12.99977266083143    8.40493410811056    9.80096187277336
H        13.94035485751072    8.84439495268468    9.51216178405564
C        12.59922495065075    7.16893124171630    9.30896578319334
H        13.22235817073691    6.62310403980835    8.61842584842829
C        11.39411793478100    6.64891218092535    9.73482275059818
H        11.06682422046513    5.68468523345529    9.38406552819298
C        10.59916806807078    7.36572948294673   10.63071454005364
C         9.33798693545920    6.89500562585524   11.18165582095134
C         8.74080919846551    5.67911906129421   10.84573679523592
H         9.19238215884900    5.02883065575992   10.11269649370976
C         7.56139503922698    5.29936505231081   11.45252862559093
H         7.10000465584124    4.35898761201418   11.19422294859969
C         6.97589151049929    6.12392687722366   12.40038142073420
H         6.05938018764683    5.82106261896736   12.88386486339076
C         7.56140506472370    7.33565137000525   12.73500467031196
H         7.08467839293037    7.95074007460875   13.48465241780524
C         8.74096227611818    7.74839020231866   12.13180569084535
C         9.71159010545534   11.71854217071886   10.08825630505831
H         9.25670570412287   12.37754866430455    9.33888458538285
H        10.67817190524294   11.38427394326576    9.70201916487202
C         9.93041931597761   12.50274201929482   11.38278843619305
H        10.46584678284972   13.43263806708668   11.15602300196388
H         8.96032698922691   12.76740974885341   11.81185497716936

