78
CSD_code = KUPMEN | q = 0 | S = 0 | Stoichiometry = C37H38FeP2 | MND = 8
Fe        3.31230865396152    2.79847213384076    2.17874606447889
P         3.29693892977650    2.44605664332255    4.29430623164880
P         1.25252768517673    2.29322520538324    2.56889855261496
C         4.08077546502468    3.45566472799249    5.58688475841761
C         5.39103627351311    3.84776825636252    5.33689565120998
H         5.85737870697668    3.51983191494978    4.41723803763281
C         6.06490014576000    4.64855140661465    6.23954447472117
H         7.08254466661173    4.95387929761180    6.04317486517789
C         5.42776893333161    5.06655525045505    7.39686469466748
H         5.94890744871174    5.69537708752567    8.10393306638235
C         4.11794064966734    4.68907745241802    7.64566353927038
H         3.62064291741407    5.02780524496905    8.54378436146526
C         3.44165025646447    3.88746233441483    6.74318616755116
H         2.41312139960229    3.60909118660027    6.93048984509454
C         3.17771361387076    0.77057599416097    5.03151043116794
C         3.22300121889513   -0.27104086893185    4.11032813950223
H         3.39615902947874   -0.02714454328842    3.06938098568739
C         3.04788550944277   -1.57741013584248    4.52284106892280
H         3.07617247061017   -2.38310580368365    3.80373126901544
C         2.83077986656248   -1.84948104498397    5.86397395413571
H         2.68629860134035   -2.86859081559747    6.19194588158845
C         2.80782574336390   -0.81761884776361    6.78855508092202
H         2.65006921438705   -1.03578627672474    7.83530375049618
C         2.98386962874939    0.49220821437550    6.37891494154686
H         2.97756373564239    1.29394730730875    7.10373215640838
C         0.48777134831661    0.67400839734387    2.92510800481136
C         0.46175186010277   -0.24295862064924    1.87852640973625
H         0.83343548447784    0.06561932236857    0.90931872895928
C        -0.02129078520784   -1.52066896120024    2.08300913250555
H        -0.04130908015472   -2.23140696602017    1.26924435274248
C        -0.47117338002755   -1.89351697264279    3.34017807088257
H        -0.84057012278272   -2.89508983212364    3.50548093697972
C        -0.44412509083566   -0.98634671927541    4.38636560765529
H        -0.79216705282535   -1.28106492950459    5.36596955948739
C         0.03429339173517    0.29508535899971    4.18282569021605
H         0.06415394773052    0.99988403628243    5.00232489029278
C        -0.12969181490910    3.23989603436865    1.86408834956048
C         0.21871501518025    4.27315557827105    1.00108512379486
H         1.26591504985835    4.41498902057560    0.76829441342280
C        -0.76135678975899    5.09148509290444    0.47172065750420
H        -0.49435861072218    5.89787508794152   -0.19645254183341
C        -2.09098085877332    4.87354447697826    0.79713880377820
H        -2.85896063162217    5.51267029639735    0.38616406135498
C        -2.44083119003177    3.83397744871989    1.64453318331223
H        -3.47945238081615    3.66544365320823    1.89083917780692
C        -1.46403639817892    3.01263310311248    2.17856764431194
H        -1.73063994361064    2.19822631064699    2.83909416935280
C         3.45000910474784    2.51840735037029    0.06354521466115
H         2.64946641865504    2.43636324438923   -0.65396092037331
C         4.05755089044321    1.43105681280219    0.75057465363804
H         3.80870451496020    0.39027648891294    0.62248344975017
C         5.13511600041809    1.94712803549188    1.49446217197938
H         5.84038538650459    1.37103108201069    2.07183368475443
C         5.19832794052049    3.34882456157001    1.27198666830651
H         5.98014810944145    4.00290232297565    1.62218511813161
C         4.17103065848255    3.69024029558011    0.36487327986314
H         4.00650049056505    4.65965199528906   -0.07396039718193
C         2.31778209671273    4.21222576683937    3.33632902108761
C         1.58537997766760    3.15627513113837    4.16139633149936
H         0.87010827761716    3.32860810163551    4.96574435015467
C         2.32257220900486    5.54093438033084    3.32616714650522
C         1.43143541653457    6.50862475705094    4.10678831368378
C         3.33099236674218    6.20391951008364    2.41853104107396
H         3.74912722232436    7.09829870816906    2.87188926644012
H         2.88011816120940    6.48125387406212    1.46634418464207
H         4.13878378740990    5.50526250002329    2.22624945822786
C         0.22049096099865    5.83481936312505    4.75670287938743
H         0.52012873604695    5.24521755965757    5.61856983294394
H        -0.30231732619961    5.20280275103454    4.04197403918561
H        -0.47485572455174    6.59593694165243    5.10847533444753
C         0.88914997257709    7.57953144168592    3.14835995704143
H         1.68730818958871    8.17043014807241    2.71025219552515
H         0.22762141601180    8.25714496235865    3.68561878560416
H         0.32131382928888    7.10797424734219    2.34852521216636
C         2.25860551677299    7.17716050216424    5.21458105311728
H         3.06022123498533    7.78333262627339    4.80116823584353
H         2.70384453903921    6.42215978569219    5.85959493912099
H         1.62327689400617    7.82279321401840    5.81856310240985

