61
CSD_code = KUPQAP | q = 0 | S = 0 | Stoichiometry = C27H31NOZr | MND = 12
Zr       15.67730043286192    7.53222505890850    5.13710686286086
N        13.19625252225616    8.03308412118666    2.35577322280422
O        15.30298413514769    8.13120822662442    3.40668758858705
C        16.58370549426708    9.09544091312513    6.93190920971818
C        16.19694445015305    9.91582737405318    5.84906990267277
H        16.85985747407970   10.59011061820153    5.31661806411841
C        14.79454502213930    9.86759835731739    5.68729589410366
H        14.21232768721102   10.48887751275394    5.01886713616531
C        14.27583026915396    9.01222876769914    6.69554239210200
C        12.96246450723512    8.71074829583128    7.11238802774857
H        12.11663259225026    9.13643959132578    6.58678089397341
C        12.77428452752843    7.91581170003258    8.21350569972492
H        11.77301057024784    7.69106569746639    8.55065546633421
C        13.86440943255519    7.39391567190999    8.93529578164517
H        13.66761622616863    6.77495415411231    9.79849218371856
C        15.15798515693187    7.67734340526119    8.57992379926119
H        15.98096910146161    7.30674507254182    9.17940901389103
C        15.40349024568971    8.50404631460057    7.46230302107960
C        17.98735936296638    8.93090675628464    7.44764910562707
H        17.98136245279935    8.25059217284019    8.30307392767068
H        18.38416076395809    9.89062846319801    7.79612210994047
C        18.90396041738141    8.36526330486405    6.34189582499621
H        19.19582805069498    9.16885783439675    5.65999605297263
H        19.82005739887412    7.96999054753913    6.79468218883054
C        18.18315371488383    7.29329757575992    5.57091001241058
C        17.60521283488431    6.13049091807223    6.12007225856898
H        17.68647424813506    5.82329320392572    7.15726152117150
C        17.03940750043474    5.34639801635675    5.09282365619504
H        16.65933466525475    4.33892267919530    5.20235174571696
C        17.27311374863055    6.01534203907513    3.86090582426878
C        16.96707430646104    5.69568278067180    2.52436062926549
H        16.45072768674573    4.77155011931367    2.29269903989628
C        17.35670107922894    6.55340238852500    1.52757746098487
H        17.13372023141499    6.31916381781604    0.49664989646875
C        18.05864159006116    7.73781709473138    1.81374173777753
H        18.35458447382511    8.37687109613896    0.99452449165952
C        18.37377417103718    8.09026586002117    3.10126346757771
H        18.94365684282121    8.99169484477640    3.29824977703346
C        17.98425642586710    7.24467805734505    4.16022206137707
C        14.18403632478003    5.95399275326826    5.67282873453125
H        13.14146815751767    6.26898545497548    5.82624717637838
H        14.51129445062307    5.54727730112575    6.64752336870361
H        14.13748441084048    5.09163560573002    4.98812684941821
C        14.42242945809330    8.74023388503911    2.60867296900961
C        15.89641549779855   10.70503240862689    2.28347001177463
H        16.58357651738048   10.10498719177547    2.87934860155304
H        15.68659531064880   11.64183680705724    2.80291916905938
H        16.37522217792908   10.95226015735568    1.33587506744145
C        13.62492697317720   10.57598851120844    1.12949329505186
H        12.81680746099929    9.88397150791457    0.91692370931834
H        14.09994859231606   10.87114537212194    0.19436341148382
H        13.21162199343669   11.47617363761333    1.58702159905552
C        14.63005512209334    9.93615396565063    2.03900280911478
C        12.25736291497521    8.22980719801950    3.44654230195745
H        12.03692487319996    9.29435698122787    3.52443093983647
H        12.66130337613310    7.86917642683595    4.41164267857378
H        11.33392980655240    7.69649360354300    3.22014169879520
C        13.43873701946340    6.62777783508964    2.08267601615916
H        14.10803611156802    6.56026153512869    1.22574040484669
H        12.49015398048968    6.15338636720042    1.83208216700452
H        13.90069765628036    6.10078506970032    2.93837007001024

