56
CSD_code = KUPROC | q = 1 | S = 0 | Stoichiometry = C25H28AuNP(1+) | MND = 2
Au       12.99430287967489    7.84927446606211    1.63312530968551
P        11.06336852800993    7.79136338148442    2.80570206389569
N        14.87345734466182    7.91536826593505    0.51254898553178
C        15.98779309671992    8.28551957639515    1.40891543831846
C        17.29643724226340    8.48631187468461    0.62903409659173
C        17.08119402597595    7.99367454427523   -0.80070230497641
C        16.54664807530937    6.56379052013446   -0.74526143451269
C        15.16076749592145    6.59432728460025   -0.08290238644082
C        16.03310539292105    8.88110302172412   -1.46959012055827
C        14.78675350023116    8.91473096991237   -0.57181693513382
C        10.39552171957740    9.43659360609380    3.15393769695328
C        11.27735315191272   10.37351071711737    3.69091082371161
C        10.83075249790118   11.64505632259485    3.99182936772531
C         9.50900437997355   11.98878749366134    3.74605835719152
C         8.63588007575186   11.06184015913381    3.20122275194457
C         9.07303613472964    9.78240482532605    2.90203245131242
C        11.23516762516556    6.99751038789368    4.42323169407049
C        10.62498258041329    7.49611825289799    5.56948185976160
C        10.77438170796489    6.82080548294280    6.76836364893415
C        11.52333154590486    5.65643863658327    6.82572304516525
C        12.13238196709098    5.15985840008942    5.68288589931649
C        11.99343198239743    5.83059444405776    4.48311111332037
C         9.73119889326777    6.88682735015699    1.98104745443940
C         8.75584133923404    6.20861706537298    2.70662237611855
C         7.73774125567745    5.55612942590963    2.03491088410635
C         7.68890262862854    5.57902065150450    0.64976051669888
C         8.66109658451784    6.25332370722509   -0.07302473310849
C         9.68477699296675    6.90411804054563    0.58986688620794
H        16.09155685702622    7.48956137819385    2.14874289689997
H        15.70952380079701    9.19940071138261    1.93716359983729
H        18.10719221797516    7.93101991867065    1.09982544740636
H        17.57988083754333    9.53890126075416    0.61494735491999
H        18.01823727633803    8.02722322133443   -1.35884161081802
H        17.23377694411834    5.93956013109428   -0.17357470764017
H        16.47780215773079    6.14706201264376   -1.74964889908302
H        14.37488565428974    6.38631168516124   -0.81151282102929
H        15.09326272869741    5.84273041335608    0.70588160049506
H        15.78928599416245    8.48025969305594   -2.45369888611827
H        16.42628718018157    9.88758589749498   -1.60981112870010
H        14.66663586192360    9.89438346492168   -0.10540636224687
H        13.88638227512070    8.70891172102352   -1.15374219547062
H        12.30651561328022   10.08827033209538    3.87435420936782
H        11.50920438664195   12.37002233063653    4.41484812838337
H         9.16149995441724   12.98344692163928    3.97851804867693
H         7.60941118306709   11.33349513403448    3.00820068565199
H         8.39308182357435    9.05788417445929    2.47647852698028
H        10.04007800086018    8.40422673774937    5.52233633668730
H        10.30283891956237    7.20482341705683    7.65998559063210
H        11.63522367352470    5.13520316334260    7.76374797469555
H        12.71615842999352    4.25337236561224    5.72980344330055
H        12.46526796133920    5.45817406108524    3.58158193093796
H         8.79850547300131    6.19220264318947    3.78688768995365
H         6.98049245560744    5.02803489020872    2.59389113609759
H         6.89265270343539    5.06739933981488    0.13170078169165
H         8.62112499403854    6.26893952934170   -1.15141046728240
H        10.45382399698666    7.43267457633865    0.03922688950665

