44
CSD_code = KUPSUK | q = 0 | S = 0 | Stoichiometry = C17H19MoNO6 | MND = 6
Mo       -0.09434504769688    3.37514127300428    2.95921275067969
O         0.76528812359672    1.74546735539006    3.33119998221731
O        -0.03059156070278    5.20192917177773    2.96421224272253
O         4.66915271194259   -1.43029038779189    1.14500723895308
O        -1.30725566138080    3.19419589574986    4.05817271599744
O        -0.46671536341106    3.13171428256954    1.36663306297312
O         1.03737888427547    3.69485256236774    5.36454157590871
N         2.03684002565336    3.86128596297364    2.47119812423973
C         1.71707535102445    1.02964158092384    2.79378500719691
C         1.68846969715817   -0.37618196563836    2.89516974690982
C         2.67329264641135   -1.14628831323002    2.33529066146145
C         3.75580526687367   -0.55958927545072    1.65428763902857
C         3.81839198614662    0.81372075157688    1.55638216652985
C         2.81075468541504    1.62404269817015    2.11532207479370
C         2.91391000915631    3.04424842138504    2.01727143149889
C         2.22557237792919    5.27691953026632    2.33666047615058
C         0.81204577131880    5.86462026200300    2.09264456888034
C         0.82291451676093    7.36687519830170    2.29147463231367
C         1.46790201488177    8.18994656969062    1.37604208088507
C         1.49927601606624    9.55901475525842    1.57173940439643
C         0.88453650646963   10.11759219574722    2.68045003393098
C         0.23243688162987    9.30213779814094    3.58922040351720
C         0.20299684054296    7.93182480086920    3.39641693059522
C         5.76612803025188   -0.91084334693142    0.43276594097323
C         0.61521104355742    4.90426259299204    5.97925385609620
H         0.85350988751525   -0.82578400874338    3.41231665988926
H         2.64373199183818   -2.22262361692312    2.40028231578813
H         4.63415924114861    1.30255901293408    1.04602738362739
H         0.32862447407445    3.05221911402253    5.52149446229652
H         3.81792154026069    3.43689934990640    1.53544023881129
H         2.93151826347244    5.53751526513841    1.53790652639307
H         2.59388314227067    5.67437954187484    3.29313587206527
H         0.50863665919179    5.62324266738411    1.05055205276071
H         1.93675201006580    7.75796112766953    0.50329246817422
H         2.00114489841328   10.19281821769509    0.85526627148130
H         0.90813701033619   11.18681782595238    2.82979643356172
H        -0.25804943809033    9.73411282448336    4.44919297182700
H        -0.31643145727544    7.28190581739928    4.08561753280131
H         6.39272648506548   -0.27558569284597    1.06730664735227
H         5.44210068299620   -0.34356444578752   -0.44550490990880
H         6.34296889383914   -1.77569238719040    0.10954874045132
H         1.34930202054744    5.67135388693081    5.73196043155738
H        -0.36949149398610    5.20358087401296    5.61017583055551
H         0.58068343444545    4.78064425598046    7.06733732166124

