74
CSD_code = KUPXOK | q = 0 | S = 0 | Stoichiometry = C34H34CoO2PSSi | MND = 8
C         4.92788454502764    2.28050238734052   12.02799518473630
C         5.59354534876003    2.01189873268988   13.06794442428962
Co        6.88172921517597    2.12838116290199   11.63511232023465
P         6.92315324863009   -0.05364232108469   11.44392017688296
S         5.51617302889959    1.81465166515144   14.80852190723049
Si        3.32376938228645    2.70246288274058   11.16544745216554
O         6.67063533406255    2.40706266453714   15.43202252767673
O         5.22490760110486    0.43258466160325   15.11279140061269
C         4.07344214811715    2.80992787046384   15.19978739817484
C         8.95679206489249    2.60171075193946   11.58183321007999
H         9.82263424684355    2.00405765821001   11.82342332658745
C         8.30427566346638   -2.15613715051075   15.28667398920079
H         8.60936353411233   -2.64279745282013   16.20161241358825
C         5.33004867330530   -0.91375328291102   11.18731414360673
C         7.49300553351292   -0.90937394907540   12.94623958195543
C         9.00321057850866   -1.65408012782633   10.35476293984394
H         9.20552550154633   -1.99751391187166   11.35886011850936
C         2.91606977309480    2.20585062394204   15.64550398219868
H         2.91261547943506    1.13723021016562   15.79273371879505
C         7.97179249076278   -0.75334505025470   10.12339837842509
C         4.14258686773807    4.17287431124516   14.98734741671517
H         5.06978407901529    4.60246245948358   14.64183378992052
C         2.82643662846917   -2.10194401040272   10.92133313588511
H         1.85601140465560   -2.56468758639974   10.81706036677633
C         3.40414196616379    2.02663590704504    9.38340118607701
H         4.29383346214970    2.38348850988386    8.87326217426724
H         2.54170476742017    2.32769086288673    8.79588745019329
H         3.44215665399278    0.94081366800127    9.38617013476626
C         1.88628995235878    1.89990230808108   12.12546951043583
H         2.04130712294289    0.83060260488729   12.22575383837629
H         0.93950685793178    2.05220300240396   11.61617682456696
H         1.79756111625749    2.31755009630118   13.12342103672947
C         3.23070966726636   -1.59594666141400   12.14675739385068
H         2.57909073300861   -1.67208230586705   13.00517430195202
C         7.30953207164365   -2.28114995938373   13.10697696983821
H         6.83864631740558   -2.85585334405056   12.32016835173579
C         1.85582941269681    4.35708523186734   15.68557568380247
H         0.98438020150757    4.96551884627200   15.87701366051979
C         7.32614680728809    4.17913370212708   11.63082701393267
H         6.72428535362449    5.01228970852291   11.96272670665484
C         3.14501405992366    4.60475998439214   11.17916256402762
H         3.10537988889480    4.98215704330321   12.19708324052823
H         2.23794899622226    4.92223297661997   10.67358286533801
H         3.98323017492955    5.08221891753250   10.68161058522550
C         3.02485980174585    4.95171266799503   15.23406466399752
H         3.06194852988665    6.01956169436305   15.07793336571596
C         9.77705990328279   -2.10790060367100    9.29960217972356
H        10.57783848949335   -2.80858530101420    9.48644258335438
C         7.71841872684683   -2.89904534141171   14.27285679306240
H         7.57152021737584   -3.96250446241364   14.39702781760857
C         4.47071774934313   -1.00014002093555   12.28209406587518
H         4.78152452772056   -0.61445628143319   13.24261429125718
C         8.37074078817734    2.69647423169984   10.27248838783618
H         8.75545254140752    2.19706978562152    9.39572051591755
C         9.53192091619496   -1.66609683318005    8.01087442821446
H        10.13750670035047   -2.02396403012659    7.19134918586907
C         3.67622068287447   -2.01810587537186    9.83208161340226
H         3.37108021694730   -2.41801914068938    8.87566732849275
C         4.92155534421579   -1.42678815708709    9.96155640794569
H         5.57876345519196   -1.38096028776317    9.10588183082637
C         8.48907643245608   -0.79374651815081   15.12994679415272
H         8.93155149879041   -0.20843820165652   15.92153177281220
C         8.08636508024654   -0.17171124280450   13.96180811074062
H         8.21395707865121    0.89529370899407   13.84353955118663
C         1.79920552428293    2.98813600295658   15.89440007186348
H         0.88666391997908    2.53162799053504   16.24758514562017
C         7.40798194271040    3.71366940886352   10.29292896063461
H         6.88058906658831    4.12063600387916    9.44574392692356
C         8.34059356881278    3.54788657486406   12.40134503584554
H         8.59745955366387    3.78832944768364   13.41967103549630
C         7.74821901145882   -0.29087595710748    8.82734313075090
H         6.97332639483062    0.44725600965995    8.66170639914897
C         8.51630184728364   -0.75213344228379    7.77558260688148
H         8.33219253408550   -0.39441612861059    6.77263720206409

