37
CSD_code = KUQHIP | q = 0 | S = 0 | Stoichiometry = C12H20ClN3Ni | MND = 4
Ni        4.28052978894701    3.17292028031235    4.63513385098091
Cl        2.24076673364017    2.84202077632375    4.78462067703567
N         4.66328662510625    1.46807058347241    3.64405508710447
N         6.06989625752366    3.52410590837095    4.43099966708879
N         4.27342777679980    4.86348541012237    5.74314963775432
C         3.93912226661308    1.37705886951725    2.36704034608751
H         4.13961922345510    0.42240844817180    1.87099645046332
H         4.26031842261696    2.19009637627108    1.71511635954886
H         2.86740440622182    1.46328009117334    2.54627199559790
C         4.28392312705229    0.33604543562477    4.50680442192620
H         4.50866225271107   -0.61553084733314    4.01382956030497
H         3.21714746237717    0.37946351473699    4.72719080840595
H         4.84627786975502    0.38689493716743    5.44084332386221
C         6.11085041279341    1.42559132366186    3.40938198935511
C         6.75175628938887    0.39211533319869    2.76351263933419
H         6.19738099341063   -0.44068032118968    2.35501894520188
C         8.13584304191939    0.40418809189263    2.65397337383528
H         8.64346206868337   -0.40751293476939    2.15661142492004
C         8.85874336177587    1.45019088756276    3.20598157445705
H         9.93744059668923    1.44662854953255    3.13699917557104
C         8.23028055497937    2.49688331605836    3.84670732960910
H         8.81470641668400    3.30032713324827    4.26808805291189
C         6.82668449779791    2.52293212736316    3.93336430106360
C         6.65325382001296    4.62717921356418    5.15598098253619
H         7.43457408989389    5.12190892068453    4.56179536681908
H         7.11395242618643    4.29993200430145    6.10386238093493
C         5.50802737267936    5.60853143612037    5.40929646567920
H         5.74733664326403    6.32563599940760    6.20682776349656
H         5.31797490718743    6.15891266210597    4.48449190611329
C         4.32898573198038    4.39014876392761    7.13338597113047
H         4.41773675500327    5.23996432297281    7.82271025527732
H         5.18326608878526    3.72843056809880    7.27792207664692
H         3.41648556404861    3.84027204756056    7.36548538201091
C         3.12853175621183    5.76980223823028    5.61128173094682
H         2.21306539713768    5.24853893760358    5.88552655237030
H         3.03462032307988    6.10060946488466    4.57757816504895
H         3.25725867758739    6.64435013004675    6.26066400856872

