25
CSD_code = KUQPOC | q = 1 | S = 0 | Stoichiometry = C10H11AgN3(1+) | MND = 3
Ag        8.21913304832554    7.23834343049654    1.66385504221339
C        11.30115500292217    6.22443284615187    2.16803252814875
H        11.41905667089722    7.25117432619009    2.48763234424335
C        12.40809340171861    5.41225074537006    1.98317373712866
H        13.40013553313361    5.79744186112869    2.15261483686808
C        12.20420699709674    4.10526289054789    1.56970692642915
H        13.03872479181063    3.44415643473260    1.39464485727217
C        10.90622057567144    3.66023054078433    1.38542005178475
H        10.72358815641772    2.65501120784090    1.04276760048839
C         9.84505414696202    4.53409618273657    1.61726677457619
C         8.44243730574238    4.09853516267209    1.46016254610171
C         8.07719127437271    2.76137364063213    1.60828236939270
H         8.80917742752805    2.02084445682623    1.88576684785572
C         6.75448845772204    2.39520693990902    1.42613082926013
H         6.45201599652053    1.36560150944327    1.53813552343774
C         5.83118873155133    3.37494561271025    1.09710942380139
H         4.79404254831814    3.13373479116046    0.93165391671982
C         6.27017020511493    4.68471811325503    0.99277908889633
H         5.57958472794996    5.47820806210845    0.74032275844340
N        10.05265188127140    5.80641272053824    1.98666542734748
N         7.53654302979258    5.04513683485318    1.17424834551827
N         7.51390840778845    9.43696028458839    1.78854167580038
H         8.28939814159281   10.09382653304526    1.77812665481970
H         6.99025389449256    9.62136572162867    2.64013542690296
H         6.90727964529931    9.69302915067187    1.01422446653257

