33
CSD_code = KUQQIX | q = 0 | S = 0 | Stoichiometry = C16H13Cl2PZr | MND = 12
Zr        7.76965171381394    3.04465894559176    9.08834410944457
Cl        7.42039091447784    4.12951767519115    7.06406211053570
Cl        7.28851699391407    0.92794776474535    8.26855366415090
P         8.60407248497239    3.50133119397764   12.26264397233790
C         9.55387667196486    3.33375795905659   10.69159012788013
C         9.76320889403161    4.32202593366381    9.68361237800932
H         9.76466070104838    5.39678700074318    9.83178854954464
C        10.17284030578759    3.65658843439985    8.50695684548416
H        10.52501923648560    4.13637430736974    7.60130641676458
C        10.16662222307560    2.26594322012751    8.75336149337020
H        10.50531473838519    1.49863726682423    8.06667532948347
C         9.77065174549173    2.06071592027586   10.09467061070599
H         9.74976035996172    1.10831359318327   10.61558670019623
C         7.03784942405670    3.66826117087343   11.30498707112867
C         6.64482983551247    4.73463437497169   10.44169051837525
H         6.97439739162573    5.76619626007564   10.50746343234264
C         5.59679874613255    4.26025625286588    9.62173724386961
H         5.00257432273447    4.86372652361080    8.94555604403108
C         5.37183045032715    2.89931786931549    9.92449530228205
H         4.58208548212129    2.28039486556602    9.51438159684758
C         6.26844857264417    2.52521437985834   10.95100925105984
H         6.28835172540809    1.56862156933727   11.46415374569257
C         8.93148686845121    5.26071738789472   12.63675849586832
C        10.22906443521692    5.75914586680783   12.56684617282566
H        11.02876728149797    5.11683062789629   12.22434448909711
C        10.49163165422970    7.06788860987272   12.92795678613388
H        11.49870283851294    7.45252105275695   12.85998443125584
C         9.46692056866072    7.88346651493809   13.38003536714390
H         9.67300747913336    8.90604782475691   13.65900296405807
C         8.17955646206514    7.38213196305978   13.48450844013051
H         7.38212192482600    8.01206887845272   13.85061194138812
C         7.91277678800844    6.07381914345897   13.12461304278266
H         6.91131076561633    5.67633964848117   13.21631135584475

