57
CSD_code = KURBUW | q = 0 | S = 0 | Stoichiometry = C21H29N2O3PRu | MND = 6
Ru        9.67567193019065   15.65176513458417    4.32577211529153
H         8.69598731747263   16.78605238798911    4.00555530796097
P         8.24792915695395   14.10921502680925    3.31373411375513
N        10.56098002540973   16.84361623490085    5.63840363813691
N         8.61204439661014   15.21170138445918    5.94059643307792
C        11.67056688189811   17.55820915389814    5.43870187438624
H        12.08691291062997   17.52872824141236    4.43940480523028
C        12.27951586118209   18.30034102398533    6.43065004227573
H        13.17999154945939   18.85178163016417    6.21278258489556
C        11.71665612299603   18.32010274860148    7.70172244367635
H        12.16548222690806   18.89098920128183    8.49939552720162
C        10.57145867554834   17.58002895162079    7.92099956131899
H        10.11732488129849   17.55778596721331    8.89833963078879
C        10.01365711041703   16.84309270130536    6.87723821839261
C         8.85227545845106   15.97225773267683    7.02458691748353
C         8.06661598377449   15.87622960252844    8.17220946075829
H         8.26368968784863   16.50412123079386    9.02550752210831
C         7.02592517151192   14.96921628070306    8.19650852306559
H         6.39113224116620   14.88365311699154    9.06479583633206
C         6.83326561415055   14.14404922262175    7.09695550040264
H         6.06304807411723   13.38831227694581    7.10583991566256
C         7.65541484449763   14.27809357288651    5.98954839411894
C         7.60275138762997   13.30889400627838    4.85136581609262
H         6.61773552748724   12.85209179301070    4.73285682985090
H         8.33265855344330   12.53079072095768    5.11099414395348
C         8.88810422995449   12.63468322182685    2.30879452553211
C         9.11314560851456   13.09712778077803    0.86882948512108
H         9.74476952036675   12.38162818550523    0.34369585670943
H         9.61732070630737   14.06463863552791    0.86535317234435
H         8.17876156636988   13.18068924795756    0.31971549765089
C        10.25416010926097   12.30709058075718    2.91541857547879
H        10.72908849386135   11.50211681354553    2.35518531267207
H        10.16705673081844   11.98503215640700    3.95180399396327
H        10.90727112610452   13.18016249139939    2.88343915159344
C         8.02580836047099   11.37389559119258    2.35204194286134
H         7.06157021043652   11.51097980929401    1.87606947440075
H         7.86863651319212   11.03584404212527    3.37323953934194
H         8.54736172950807   10.57936905716956    1.81867558748858
C         6.65144045989300   14.78959816002173    2.53491254147504
C         5.70373572380544   13.73753624279086    1.96322731046737
H         5.47319372624192   12.96490383433734    2.69358990398158
H         6.10809737405827   13.27463590099943    1.06801740347883
H         4.76721085872341   14.22141010483396    1.68636777265447
C         7.05304039475137   15.78198029943027    1.44310832405292
H         7.48221494418324   15.27935194650119    0.58194579532551
H         7.78869322217157   16.48380690892725    1.83549003686175
H         6.18113567087748   16.34159108987629    1.10763756948526
C         5.90863402625452   15.55165329713225    3.63714032690075
H         5.10630857045807   16.14046565094025    3.19479915302861
H         6.58262952708550   16.23608047679192    4.14981320931912
H         5.46415139303564   14.87790839566621    4.36619451694502
C        10.67213587273943   16.11494724347029    2.84126152666392
O        11.28999129736868   16.40080299129588    1.91257606213023
O        11.30791690315490   14.33443284250621    4.96570333579506
C        11.20540132680075   13.52220746778151    5.91057983226456
H        12.20140686991816   13.14350617614396    6.27792769873419
O        10.18901534225187   13.10030401244592    6.44568040905371

