32
CSD_code = KURJIR | q = 0 | S = 0 | Stoichiometry = C9H16N4S2Zn | MND = 4
Zn        0.55973710534663    2.51853771606277    3.83710191600442
S         2.72333755597345    6.30400027257355    5.10443758303132
S        -2.80287896470333   -0.32718316797467    5.02776619161149
N         0.08071266161416    2.97562713356856    1.80998240604272
H        -0.90146475416500    2.88935824762194    1.56391583666778
H         0.35503171330340    3.93559992354303    1.61116227446743
N         2.22496169543098    1.47074594787059    3.03052465577612
N         1.19968632308501    4.09820686953511    4.49265026459848
N        -0.80103063369033    1.44969560929071    4.40201577063699
C         0.89408643034914    2.05023368443604    1.02138583617557
H         0.99398618049676    2.37102839660853   -0.02329184397427
H         0.40755336244751    1.07307581866203    1.03447894573918
C         2.28345693651483    1.95578994110991    1.64836807177811
H         2.71824625595250    2.95899688625787    1.66155726714466
H         2.92446092624536    1.31001978851160    1.03316487099721
C         2.09456304745109    0.00657592142772    3.05443503045982
H         2.96105859995881   -0.44331203980210    2.54585413166851
H         1.19058934613427   -0.27856297198309    2.51452210385830
C         2.00903151093341   -0.52424376561079    4.48000324090597
H         1.91143822086087   -1.61013750479393    4.44652369600300
H         1.11607644798701   -0.12022470912785    4.96023024229538
C         3.24203857335596   -0.11714126083195    5.27616696051885
H         3.13958499839272   -0.43133723840360    6.31461604948916
H         4.12995709354435   -0.60296471032697    4.86312152475008
C         3.39843429435071    1.39557086380617    5.19255157808064
H         4.30387525689748    1.72264768231820    5.70466753557968
H         2.54236818232089    1.88086425632804    5.67265831335025
C         3.46151032242663    1.83602451795909    3.73712013077981
H         3.58224549261315    2.91990462790625    3.69158671516430
H         4.32360915413638    1.36519206606576    3.24243041740383
C         1.84718353802028    5.04751058775374    4.77176409864407
C        -1.66924687357753    0.69720060963748    4.68402818435363

