45
CSD_code = KURKUD | q = 0 | S = 0 | Stoichiometry = C19H22ClNRuS | MND = 9
Ru        1.26140058470760    1.05124650287103    4.02691988529591
S        -0.36701778976637    1.52434586773840    5.84634979073062
Cl        2.83011496235021   -0.11420229757724    2.62474564337707
N         0.70877771076263   -0.70602804956421    5.17804430739084
C        -0.30653657905938    0.32110676759664    2.71252595897634
C         0.24206604977369    1.49911167214318    2.15494129959591
C         0.12970470655614    2.63118844826358    2.99935503442716
C         0.75823347740690    3.97148397821159    2.67434956775882
C         2.28796652592939    3.93047026362751    2.85776177204721
C         2.70905756824038    2.68048343883800    3.60466995372245
C         2.53729216143664    2.53261630232299    4.99828819104375
C         2.84281631849477    1.24183656588926    5.49408471722874
C         0.92284506715080    1.52374195066978    0.81830456869760
C         2.00243009544306    3.62739019877192    5.87567269867315
C        -0.10048920294487   -0.14754085580182    6.07557962752954
C        -0.70394282479075   -0.86256935736889    7.13461955272480
C        -0.45792480004883   -2.19307445836523    7.24429759131812
C         0.37744106780195   -2.82712404459374    6.29282047056577
C         0.64366148645970   -4.20574407131821    6.34786544518887
C         1.44101871260512   -4.80544268869549    5.41030930608064
C         1.99854338034211   -4.03721291017421    4.38256557420287
C         1.76279485709651   -2.68969325114217    4.30150420933474
C         0.95286481410900   -2.04358283553559    5.25173702408450
H        -1.25076924331320    0.38423073333782    3.25913647699728
H        -0.18405482083586   -0.60387326160793    2.15358084112850
H        -0.80656246564992    2.72370402514115    3.55409328134846
H         0.32225417607384    4.72725146561301    3.32951213960638
H         0.50540198860398    4.25062407473787    1.64690346950783
H         2.62742800456753    4.81580293080896    3.40331384766583
H         2.78320533113748    3.94135834704142    1.88588600244597
H         3.57526153944090    2.18175754245746    3.16604543760010
H         3.71093750704140    0.71427081332139    5.09449805536309
H         2.67687247017009    1.06206690167165    6.55669574222218
H         0.25119032756842    2.01296872561109    0.10956255335919
H         1.86037356354409    2.07313631374083    0.84100882615738
H         1.12685099657204    0.51467688966445    0.46970718874789
H         2.77657496237839    4.39102491556385    5.97144801582397
H         1.11222487488779    4.09443370658323    5.46133137647410
H         1.76206669592581    3.25140525440801    6.86730356801718
H        -1.33827242503288   -0.32120264831508    7.81825263826590
H        -0.89276779572390   -2.78135208553692    8.03960372274594
H         0.19976226365591   -4.78133058443743    7.14772689350296
H         1.63945479205201   -5.86562364533178    5.45912261130147
H         2.62371288936526   -4.51230895593634    3.64159843312726
H         2.20103601749204   -2.10512859535053    3.50965668860924

