63
CSD_code = KURKEN | q = 0 | S = 0 | Stoichiometry = C14H32B8O6P2Pt | MND = 8
Pt        1.83200068005633    1.93759497003058    3.49959975900719
P         2.74311146750462    1.09213318065320    5.49591156255473
P         3.14158461270799    0.57981300465624    2.15395079540845
O         2.83034723799371   -0.43123091155935    6.01948837452481
C         3.39806447439469   -1.49050634478377    5.27936251210536
O         4.32037754254197    1.46016789913755    5.74087012400056
C         4.84873459613087    2.64299174134846    5.18514241481683
O         2.01852480834591    1.70703262411076    6.78461867152342
C         2.44527361753217    1.40402497555967    8.10598431482308
O         2.82078089476011   -0.93086483160039    1.69577956678195
C         1.80827696390029   -1.23170045908850    0.74755663243621
O         4.47249893653249    0.27312325283184    3.01652787120479
C         5.52781214452941   -0.52821650369723    2.49919803303228
O         3.74411402494323    1.07556616581154    0.71540291318895
C         4.19203437459353    2.40789589632347    0.56241362449772
C        -0.43513128975052    1.06746380334214    3.28481931586825
C        -0.62697733797288   -0.38709946183818    3.30022567076735
C        -0.04958746078419   -1.17735604579228    4.29647472653393
C        -0.19697381016098   -2.55050645981962    4.29531662401160
C        -0.93845979989105   -3.17434166796487    3.30471144280772
C        -1.53784112909277   -2.40531844537313    2.32061624759624
C        -1.38336043745525   -1.03169998553786    2.31606397333383
C         1.49022351931624    4.12633016969154    3.35741013767228
B        -0.19216185778107    1.88547294134848    1.96170138177415
B        -0.58959877215558    1.99878088690743    4.51831496199280
B         0.60407076287325    3.62331100371771    4.56636683438606
B         0.93975432172583    3.52480817869851    2.01140842522484
B        -1.64063047717300    2.23661893601979    3.02361923481870
B        -0.02953722258216    4.67067845004170    3.14130698229645
B        -0.86388880726955    3.50762422961446    2.12232967875033
B        -1.11877016466902    3.58913198288577    4.00116100527483
H         4.47043995750969   -1.33788628377230    5.15673261915713
H         2.92892578612108   -1.58096654034061    4.29748892545712
H         3.21664430549052   -2.39724690997878    5.85735848041313
H         5.90974308020766    2.47412386201674    5.00060922880546
H         4.72249575935787    3.48015436864511    5.87553979786880
H         4.34350371149388    2.87783855762840    4.23966541580011
H         2.00944560141629    0.46082570590241    8.43530481594147
H         2.09178979126434    2.21620605000673    8.74040548431289
H         3.53283093129982    1.33454014796814    8.15713336927669
H         1.92490639660168   -0.61865540251230   -0.14582794085257
H         0.81783605708930   -1.07650331466554    1.17670926743569
H         1.93483730014113   -2.28356110206931    0.49284774267099
H         6.42479521472802   -0.26871702523718    3.06078535558409
H         5.68051214336934   -0.32715175893864    1.43786585341590
H         5.29884904284242   -1.58603329222639    2.63096981562883
H         3.92796813872834    2.73334681062157   -0.44388643823025
H         5.27590700767206    2.45425888620640    0.69104877328203
H         3.71453570836525    3.06284084193759    1.29555216009359
H         0.51662482037104   -0.69447913338390    5.08080138769930
H         0.26462156420104   -3.14063045419116    5.07512351022161
H        -1.05484201009508   -4.24844493184249    3.30397720832141
H        -2.12924040207914   -2.88111608490866    1.55051580929095
H        -1.85900419734945   -0.43915147063141    1.54780502195983
H         2.35895221530409    4.77147864780303    3.45559957084746
H        -0.10676613215559    1.33054524423983    0.92236810358557
H        -0.84288762479532    1.57073597324577    5.58346343743827
H         0.88024978232824    3.96521488331268    5.65905990240396
H         1.45624112187258    3.79055951459990    0.98263722124206
H        -2.73973495469915    1.84897159505805    2.87573676478242
H        -0.16402956066563    5.83735199411377    3.07922305869641
H        -1.49102708709830    4.00272785504072    1.25259279502436
H        -1.94658988241441    4.17219959073602    4.60843966934579

