56
CSD_code = KURLIT | q = 0 | S = 0 | Stoichiometry = C27H24N2NiO2 | MND = 4
Ni        4.58156559373641   11.09372239176272   -0.06980706768387
O         4.52947612345748   12.91705202759337    0.23790959806935
O         4.62605240945311   11.47065608792075   -1.87951341706095
N         4.87759938725977   10.77597556340229    1.75434889593968
N         4.29101532778593    9.27733230609767   -0.43540825167607
C         4.29411646926111   13.55145469225898    1.31796724004035
C         4.07302910966879   14.96621193884438    1.22323275389364
H         4.11481133850178   15.39494741445183    0.23357139533681
C         3.82138759763663   15.71716373417007    2.31846118417151
H         3.65756670181325   16.78193777661255    2.22476670147317
C         3.74592366250008   15.14090370182669    3.61605738974660
C         3.43991749123571   15.93087696003145    4.73467749547346
H         3.27976670109771   16.99017462244836    4.59079017536769
C         3.33766449983982   15.37586394362421    5.98416092058866
H         3.10132856763414   15.98851512782625    6.84130536002354
C         3.53088083038468   14.00259297791683    6.14045609787271
H         3.43211444862149   13.55801399460654    7.12041334406614
C         3.83432076914668   13.21029439277427    5.06094398962933
H         3.95133330417765   12.14890872759644    5.21975484122778
C         3.96973964930546   13.75033490058295    3.76963204142064
C         4.28722656306209   12.95933611584649    2.61378419676772
C         4.71034776409944   11.61626951606085    2.72971733624510
H         4.98643239611386   11.27479357164557    3.72809322816176
C         5.51974246746613    9.50829576018945    2.05689270449346
H         5.88007592904055    9.50163970108198    3.09431050102591
H         6.39084367971874    9.40766552398060    1.39884189623843
C         4.59722078214165    8.28713581766913    1.84630287700792
C         3.66258657429912    8.53008166444588    0.64055542044850
H         3.30517677855074    7.55911831121151    0.27224417314132
H         2.79085701550542    9.10073731600937    0.98175250844761
C         4.44998211243025    8.67582620094114   -1.57498885282496
H         4.17690306934716    7.62077449725591   -1.61793221928712
C         4.86020484207656    9.27385279178525   -2.78749323289574
C         5.16580973567240    8.48611298251764   -3.94889120880551
C         5.29911416846424    7.08653298621242   -3.91949064737929
H         5.18985744810223    6.55077465840308   -2.98865273704297
C         5.58976998231991    6.37057808708771   -5.05442699069661
H         5.68672428429412    5.29571539725616   -4.99958517925463
C         5.77181632997861    7.01734874032930   -6.27757503210597
H         5.99822652350755    6.44294058223199   -7.16342825247257
C         5.67168887630243    8.38340252466646   -6.33652532807678
H         5.82387727403036    8.90419447169100   -7.27148935719531
C         5.37860062079629    9.13659836546330   -5.18942391477968
C         5.30525076685304   10.55514862714265   -5.25143933467562
H         5.46033527974025   11.03082242624323   -6.21008437542212
C         5.06437809811702   11.30096218172169   -4.15031777622894
H         5.02323541600975   12.37884473467748   -4.18786670602211
C         4.85264878816285   10.69638586912020   -2.86615376030120
C         3.73754997983046    8.06743010848806    3.09259917107487
H         3.19501171608940    8.97597470047358    3.34560976413217
H         4.35973978511514    7.78604303320830    3.93940979341899
H         3.01500020635735    7.27239654325408    2.92194079808385
C         5.46842343741030    7.05688392278588    1.58549249640346
H         6.00232847193476    7.16166383746736    0.64327436655474
H         4.85568235650230    6.15914530786244    1.54067653251103
H         6.19872049804094    6.93123984122252    2.38184645338920

