61
CSD_code = KURLEP | q = 0 | S = 0 | Stoichiometry = C28H24N6NiO2 | MND = 6
C        12.01576371171094   12.72404893508808    4.56917452578316
H        12.11735561954393   12.56334889905169    5.63495158555111
C        12.66575323416650   11.89824230233254    3.66499169813008
H        13.28005253513232   11.08293351116090    4.01186922437786
C        12.50329093249717   12.15085736086772    2.30929602621936
H        12.99264764738814   11.52906846604372    1.57360056478600
C        11.70519473736467   13.20425126438961    1.91299004455767
H        11.55421882391769   13.41493354941259    0.86679922440269
C        11.07918165529737   13.99169016240793    2.88779869555866
C        10.20830308028050   15.10230515528532    2.57853722629415
C         9.99900185889816   15.56791325550220    1.16952759632653
H         9.37618740311883   16.45778055092843    1.18642617428813
H         9.49764489543106   14.79803224731895    0.58414249889074
H        10.95140397043428   15.80028810292461    0.69490322798825
C         8.19436545194062   17.12217651264195    4.51401265844720
C         7.23206066985646   18.23134191991421    4.34322870555020
C         6.98775510009018   18.79546532890830    3.09395331650393
H         7.51733023567655   18.41446295684066    2.23522028967904
C         6.07558773199295   19.82586071059756    2.96764686076141
H         5.88588989517302   20.26232301127682    1.99748421865746
C         5.40026584549074   20.29984716069820    4.08169113717087
H         4.68589912871930   21.10396048937032    3.97811049936611
C         5.63929892019913   19.74142254835682    5.32720463732396
H         5.11098910919579   20.11003717220810    6.19464223988124
C         6.55126231411467   18.71198155886493    5.45893338182172
H         6.75099515037823   18.25971613735365    6.41881282380055
C        12.10988432844509   17.25535405849577    5.60094475395196
H        12.04969566397285   17.41503161776478    4.53187898524420
C        12.89637688878785   18.07592582127600    6.39473618512717
H        13.45749597618005   18.88605777483508    5.95741580329369
C        12.93973384859652   17.82485941610696    7.75972257685773
H        13.53988807851615   18.44297118490599    8.41171348448694
C        12.20300707911860   16.77779583955066    8.27407725060993
H        12.21104108451664   16.56850465227310    9.33135392319428
C        11.43041168880838   15.99490545610348    7.40668657348543
C        10.61002554092262   14.88955448637309    7.84574651333257
C        10.61461264888866   14.42516306338251    9.27060040676617
H        11.62655365711646   14.18570917611622    9.59467102340834
H         9.99014898712223   13.53979415018600    9.34957408093797
H        10.21400167257613   15.19858416758136    9.92488118550159
C         8.32003048568498   12.87607877045992    6.23830894314642
C         7.39592157910614   11.76544238858590    6.55123780436677
C         7.33846070849625   11.20466817580760    7.82434442717809
H         7.98581032497584   11.59052849074833    8.59576225650064
C         6.45874470597153   10.17126193753448    8.08495602491871
H         6.41412962020352    9.73736176425384    9.07360749434886
C         5.63062302408013    9.69081581375231    7.08236119960071
H         4.94262486805102    8.88410551470616    7.29097563152238
C         5.68319956901051   10.24613982870979    5.81383917631950
H         5.03587033392755    9.87256070700762    5.03355732212921
C         6.56175600468697   11.27870373380383    5.54795852747796
H         6.61773747085685   11.72856035373198    4.56800727061295
N        11.25457675640128   13.73823826047624    4.20157285763694
N         9.60503928227644   15.66620604764500    3.58950439587383
N         8.79116445522571   16.68437187424486    3.39836426375895
N        11.40566567991543   16.24715294338428    6.08125279422502
N         9.85819352543183   14.32816760705428    6.93827564753173
N         9.07954426865679   13.31241652110462    7.25079932735133
Ni        9.77957921151244   14.99706317029933    5.26024684520801
O         8.41754390802502   16.64154326248123    5.64968515199699
O         8.36820741592790   13.35801269951101    5.08243080997776

