23
CSD_code = KURNIW | q = 0 | S = 0 | Stoichiometry = C8H7ClN3O3Re | MND = 6
C         2.36618539257037   -1.76247296607828    7.77537213114358
C        -0.02918635366611   -1.21916927363141    9.20713690224126
C        -0.16987162116707   -1.84118783825179    6.49232680440831
C         1.67708043449388    0.55272415099979    4.67707992890219
H         1.39447993411080   -0.32625044005017    4.12998014912493
C         2.10136281821401    1.79936925721104    4.18197942426194
H         2.21309721550231    2.08222921832402    3.15597071304768
C         2.33158194022985    2.56977366533286    5.28886525804947
H         2.65668474895116    3.58579607725572    5.37590673086336
C         2.09728504426272    2.08527511960909    7.72228682972466
C         2.50821151979276    3.45934329066880    8.12802657540863
H         2.53377630982146    3.54045085805853    9.21216730128325
H         1.79469865027811    4.18762919797330    7.74224829927149
H         3.49486384428638    3.69929027696706    7.73255066713023
Cl       -0.90013279456468    1.03184281198975    7.29849244019235
N         1.65570061441438    0.57035917037631    5.98993985228824
N         2.05280568128357    1.79719543241114    6.37231159207850
N         1.77869164823562    1.12511421587562    8.50154978616909
H         1.79046751507863    1.34357871468910    9.49513451948407
O         3.28949008810668   -2.43691581326967    7.88523363591434
O        -0.58471708672804   -1.48527331690685   10.16967716789939
O        -0.81237335184479   -2.48682720805337    5.80173384527558
Re        0.83771780833776   -0.57897460150022    7.58402944583752

