39
CSD_code = KURRIA | q = 0 | S = 0 | Stoichiometry = C10H22Br2N2NiS2 | MND = 6
Ni        1.09756391331844    3.45926058954626    5.09722640504039
S         2.52203668373727    2.83236001713341    3.60986697266235
S        -0.16486951198491    4.12809633541394    6.70765766582192
Br        2.23489960475094    5.58372861415255    4.99569018055193
Br        1.92209732494566    1.84503893481804    6.68846566315194
N        -0.30814278180840    4.15926667163549    3.32207070369224
N        -0.62678426696852    1.94652566655208    4.49924877780831
C         1.48211967168128    2.95713339390158    2.11302632854100
H         1.82781520920578    3.85159525239407    1.59517214839703
H         1.69373121601305    2.09091436198168    1.48864745808984
C        -0.01547192823849    3.05177944023423    2.40383277166376
H        -0.53108235488852    3.21383501082905    1.43707955076730
C        -1.68706293217560    4.00486771742506    3.78049813912624
H        -2.36129135865224    3.83015992528917    2.92590876649025
H        -2.01421739215596    4.92799193194654    4.26070226206617
C        -1.76133763080949    2.83549078869735    4.77839754827207
H        -2.71489779154979    2.29181764733725    4.63063802113903
C        -0.55074556532453    1.76224114555364    3.05158764667821
H        -1.54121711064881    1.50366474047868    2.64227659429623
H         0.11438194489781    0.92717946728053    2.82777780019993
C        -0.79590888535843    0.65487443093115    5.15590655113639
H        -0.80375023305868    0.77457243157413    6.23546845473815
H         0.04713449316448    0.00994348793346    4.91635054110453
H        -1.72517361525345    0.16365587908003    4.83653728774992
C        -1.73441709508167    3.32673030008748    6.22558272259324
H        -1.85573244800865    2.49111243146238    6.91465739294795
H        -2.53833921040940    4.03978321919689    6.39969254901607
C        -0.64016437224435    5.87466022496839    6.64403353141897
H        -0.87794033580073    6.20081030717340    5.63828076758057
H         0.22098196686637    6.43278754379547    7.00005411795113
H        -1.48318753796912    6.01742744077675    7.31533939928128
C        -0.14684981789268    5.44920539496776    2.66013926011146
H        -0.79946929001547    5.53044344081242    1.78008800037882
H         0.88618487705997    5.59581417354331    2.35795143525548
H        -0.38818746290055    6.24979344024581    3.35655215139115
C         2.90897425805057    1.06285163492569    3.61050726087295
H         2.03295443030569    0.44916284749099    3.78549568710346
H         3.61277685425469    0.91056669110388    4.42402249164599
H         3.37728848094602    0.82135702733042    2.65986899326660

