64
CSD_code = KURTEW | q = 1 | S = 0 | Stoichiometry = C19H38P4S2Tc(1+) | MND = 6
Tc        0.06270359565121    2.24587613665952    4.08732881770105
S         0.63050231349124    1.93931343030083    6.36255754571989
S        -1.81279523887590    3.37033226199594    4.96529532182352
P         1.67691584450368    3.97991752354117    4.07254089885619
P        -0.45775602376363    3.20334942318191    1.94793300258090
P         1.70972155588739    0.58808919131520    3.53048794566550
P        -1.38653990122234    0.40772343359562    3.72320021416196
C        -0.59447193762914    2.70126911508435    7.30458493518001
C        -1.69162264975527    3.31666284470605    6.68178105387476
C        -2.68822292371416    3.90142621964519    7.47303951919399
C        -2.58002579094326    3.88134068952602    8.83874322825814
C        -1.47975596412092    3.27894728592473    9.47428307712339
C        -0.50127452744323    2.69679799203026    8.70023743846705
C        -1.39379890237367    3.28248707753680   10.96594103343891
C         1.14346057370412    5.39862126624329    5.09310151450433
C         3.42341977780257    3.83830808414007    4.58296265717030
C         1.82597237886282    4.72257247893728    2.39332875586613
C         0.43586832341258    4.81657843867854    1.78533809650300
C        -2.15850433440236    3.78210484185484    1.61595550394563
C        -0.06173136772558    2.41713920476411    0.33751977330521
C         2.64955074765862    0.55259472447926    1.95428459312300
C         3.05214946668410    0.22785544590167    4.71620471421653
C         0.89731364167712   -1.07498327128094    3.49703032109770
C        -0.49645446999817   -0.97772775073388    2.89817142602142
C        -2.96497118791509    0.44582912123082    2.80773136608730
C        -1.92868722312907   -0.34388442113723    5.29803528200231
H        -3.53058998315162    4.36696756166258    6.98406694418337
H        -3.34955321278612    4.33707704628541    9.44318938546493
H         0.35510888149631    2.22078228861723    9.15485483851633
H        -1.33035098657176    4.30553127395242   11.33522503542206
H        -0.52228271741512    2.73296945731664   11.31083570568302
H        -2.28700153259864    2.83256727480734   11.39675337989293
H         0.12201816203867    5.68059697198958    4.83735180382461
H         1.81395412472735    6.24569811254307    4.94507025598778
H         1.16733841397638    5.09616513764177    6.14145388205903
H         3.95521340156052    3.17815661393513    3.90010202880292
H         3.88940759313630    4.82390291688696    4.57365320796857
H         3.46511219431512    3.42615914275546    5.59077404239187
H         2.30763593091212    5.70234214680989    2.45973923911268
H         2.46181962141369    4.06360687899631    1.79444783151869
H        -0.15967735131746    5.55593707631559    2.32928248215979
H         0.47198587333666    5.10944200795538    0.73222441737175
H        -2.55270863168445    4.26443323804862    2.50791878279305
H        -2.79751690680800    2.94115653616584    1.35900666047899
H        -2.14273375424087    4.49203961248509    0.78875432936266
H         1.01755033107079    2.34092573679518    0.22380432725400
H        -0.47214443635371    3.01646663360554   -0.47455620550317
H        -0.49504591184727    1.41870169589187    0.30367451029675
H         3.15982331860072    1.50411735645857    1.81283059646906
H         3.38518439277023   -0.25060462242231    1.98333504229634
H         1.96503346050579    0.38897735585255    1.12466782602566
H         3.47538121032138   -0.75216735314405    4.49492822751851
H         2.64783966666322    0.23534281436949    5.72625436485713
H         3.83043146633856    0.98312907226945    4.64315828015803
H         1.52814780710246   -1.77863697824910    2.94651908420577
H         0.83345666706773   -1.40875171976985    4.53703993263671
H        -1.05781121954283   -1.90831635600468    3.02136944635892
H        -0.43913760241472   -0.74605391818183    1.83039408531150
H        -2.77632059097186    0.65542385089541    1.75636583609071
H        -3.46791741068186   -0.51673870667455    2.90289503404425
H        -3.59727879336258    1.22902704727623    3.22495361814118
H        -1.06775765741990   -0.52395526388918    5.94192664581184
H        -2.45815246684510   -1.27838461049921    5.11004250681407
H        -2.59712712763573    0.35682588216049    5.80127455226782

