39
CSD_code = KUSCIL | q = 0 | S = 0 | Stoichiometry = C20H10Br2Cl2N2NiO2 | MND = 4
Ni        4.45581209748655    7.61755887662398    0.02304758497303
Br        7.80946667768717    5.94434680376762    2.84477484277788
Br        4.71384144058925    8.93356903344783    4.51901889173845
Cl        9.46653244314180    2.61025433825902   -1.25046478096772
Cl        0.57060880908054   12.49181862834480    3.62162141059052
C         6.52060085133047    5.32458777607009   -1.05509190547864
O         4.23393829602257    8.41166366569629    1.66525073426297
C         7.40824547219672    4.32575181179812   -1.51306848525439
N         3.05806761637078    8.57790112267727   -0.73939763178481
C         5.53420747180056    5.84143849325474   -1.92005217331951
C         6.62558646085796    5.82227303833929    0.28440928634817
C         8.38065803405545    3.83159616021365   -0.68863688850693
C         3.40737234875283    9.29752935498402    2.04262365188194
O         5.86078067768419    6.70604553124201    0.77872669550072
N         4.66541580897848    6.77397059573343   -1.62102310535339
C         1.55637366533477   10.89019357807291    1.69519333278278
C         7.66802844312702    5.26698075303552    1.08671811560688
C         3.42879664443823    9.74661410686201    3.39780534179844
C         3.74085503663974    7.23776925027556   -2.56621847853500
C         2.67628798589671    7.36086843582578   -4.72011741701677
C         1.89627511776568    8.76777583324811   -2.93697112668565
C         1.80946716777927    8.33308063161122   -4.24472950632466
C         2.85904278398118    8.23101784100381   -2.08234188716989
C         8.52135506467224    4.30467156431882    0.62658018045319
C         2.32300891813743    9.49130218464089   -0.15694253670078
C         2.57759925773592   10.70371080878949    3.87221998630551
C         1.63576434989972   11.27943296532744    3.00349728826280
C         2.42580699181915    9.89848404371336    1.18914565341773
C         3.63632932837572    6.81488871464711   -3.89122869445500
H         5.52505494944521    5.41007185300400   -2.91740877232469
H         2.62513446665823   11.01676348078667    4.90340520686596
H         7.31202858198399    3.95785807940893   -2.52276737373731
H         9.29658086077976    3.90917923535726    1.26392209557587
H         1.55197519279204    9.99608241357953   -0.73280378560516
H         2.60328495330323    7.02728476038744   -5.74349775582856
H         1.06230147943578    8.75581221902780   -4.89818411827016
H         0.82621850863122   11.33666321100925    1.03819863294449
H         1.20667377358752    9.52478153883455   -2.60031325814745
H         4.29572197174491    6.06310726678042   -4.29369925062077

