40
CSD_code = KUSCAD | q = 0 | S = 0 | Stoichiometry = C16H15N2O6V | MND = 5
V         1.61187438534494    0.38545239842885   10.21275841524061
O         1.82162673595492    1.39800432526977    8.85923159227939
O         0.68884302503279    3.22346738106028    7.33932403828151
O         2.20451391062545   -1.26081077204434   10.89791082856672
O         6.09894930827674   -1.66580708664648   12.41584150608804
H         5.71767718507188   -0.94373413517900   11.86857853959464
O         1.46370854494920    1.25270964194076   11.46203416577701
O         0.23566015845859   -0.35002870374710    9.78858228373680
N         3.66292916502581    0.58631741233328   10.32001276128534
N         4.26195149816537   -0.36900267153715   11.04379600290975
C         2.49445090611631    2.48583125421770    8.62338640738491
C         3.78716143589727    2.66733482972209    9.16565774791400
C         4.50336231953120    3.83993400841464    8.87112849923904
H         5.49097737289257    3.96914060227883    9.28648594136590
C         3.94483946186666    4.80838736120888    8.07695956527320
H         4.49136546211682    5.71247162321358    7.85754995797190
C         2.66563050060559    4.64630880221029    7.54080896169332
H         2.25579665868066    5.43018591579917    6.92402228630664
C         1.93800317825393    3.50102097755217    7.79864192735734
C         0.03476130024075    4.19623096724617    6.56121678365805
H        -0.94456053395118    3.77993372647723    6.33153116790614
H         0.57311753213103    4.39198458500370    5.62784001360282
H        -0.09015908353301    5.13295852404759    7.11345337309306
C         4.34262444670883    1.62725158395170    9.97093367341474
H         5.37894790170137    1.71428311114391   10.30332381730876
C         3.39711236272044   -1.31478511837833   11.35645446198343
C         3.81753387201977   -2.43398345814479   12.20167306487847
C         5.13486546300501   -2.55394273581105   12.68539485737381
C         5.46109616171052   -3.65381715172802   13.48216638160085
H         6.47466063406397   -3.73213253180999   13.84257798866822
C         4.51430204773371   -4.60389093461956   13.79791774782313
H         4.78861728197985   -5.44526621938564   14.41658453760548
C         3.21138519326706   -4.48367698337538   13.32817443803536
H         2.47201257803326   -5.22757035780753   13.58140688087990
C         2.87250554684719   -3.40808404798409   12.53898622751241
H         1.86668093127736   -3.28687062890747   12.16324962809085
C        -0.95840386381055   -0.98356351268875    9.93400271219603
H        -1.41724023824563   -1.17527635250029    8.95290013978238
H        -1.64203808613752   -0.37705760340663   10.54693375932823
H        -0.79104266062840   -1.95000802581879   10.43846691699161

