31
CSD_code = KUSDOS | q = 0 | S = 0 | Stoichiometry = C10H11ClN4O2S2Zn | MND = 4
Zn        3.91527944787864    2.09572843186171    8.48669322032008
Cl        4.32125853400448    4.26537079577063    8.40967420309812
S         5.17856375208943   -2.37291209740308    8.65439696838442
S         3.86237848126841    1.72744281080325    3.87284916963649
N         4.65778120932158    0.12179572674903    8.40009862783723
N         5.03130374181775   -0.49553940506488   10.61315931354602
H         4.64008132192209    0.40242874512349   10.90333437028198
H         5.08546180590166   -1.24847214535029   11.27625515846439
N         4.03657028278877    1.79734463702916    6.42755522899798
N         3.53302656240927    3.87215932202108    5.51677589219082
H         3.68741618392654    4.29338027527915    6.44644065132020
H         3.44684847110905    4.44620357924877    4.69759700886196
O         2.01683551025477    1.80658151333849    8.99259801997392
O         3.54802839926042    1.82906175665563   10.55045015524131
C         4.92140113673018   -0.76673022665673    9.31312308890367
C         4.88237197400834   -1.73825961452609    7.07165262757522
H         4.91691044236334   -2.37942903612108    6.21664782843415
C         4.61903788397885   -0.40776761554164    7.13509575336535
C         4.30313460299032    0.50560421694854    6.06113551341053
C         4.25112457153164    0.27113328244195    4.72454200265244
H         4.41422276790067   -0.64091995463724    4.19057691443339
C         3.79819652356890    2.57984245815899    5.41261352568760
C         2.33612912965214    1.78265289536898   10.20484417048749
C         1.27548013601050    1.68531187116197   11.22501872998279
H         0.27185914543545    1.59681602865280   10.83652750430477
C         1.53763418694657    1.73198585249906   12.52693710781946
H         2.56754131012021    1.83994415778594   12.84381727211085
C         0.51770689746732    1.66001882834791   13.60446901079374
H         0.55464949933516    2.56637968876458   14.20815915590996
H         0.73036763509336    0.82030477132205   14.26582183806236
H        -0.48220154708376    1.54713844996712   13.19383996790562

