72
CSD_code = KUSGEL | q = 0 | S = 0 | Stoichiometry = C36H12ClF18OsPS3 | MND = 5
Os        8.93891434451337    5.86927284714280   14.66147853551814
Cl        9.97895540428884    6.41181666927216   12.61330649565079
P         7.90996907805714    5.33104624898860   16.70242275591436
S         9.37892714356267    7.90588202460304   15.55081084797527
S        10.36098365068841    4.14973742765379   15.05135788400576
S         6.94329673346388    5.47449706800195   13.66612192985238
C         8.67311201119906    6.10925940001368   18.15643367123094
C        10.06615492979334    6.10865876418284   18.23354534822587
H        10.64455763668557    5.65943663134729   17.43703777188339
C        10.70549233181758    6.68298951340060   19.31352553142506
H        11.78094817859739    6.69767834483532   19.39003999245783
C         9.93483545106621    7.26117865031460   20.31012843329726
F        10.54639990366141    7.82179837042666   21.36413160447845
C         8.55127846643254    7.27852437082047   20.25223090305938
H         7.98841922128867    7.74267642019692   21.04668674974861
C         7.91990834288339    6.70001450062922   19.16654310005665
H         6.84175704799129    6.70843030398916   19.10392427249626
C         7.90778127048051    3.55840817096400   17.10157069950096
C         7.61176933128766    2.66361761695220   16.07302613672067
H         7.40666082114833    3.04094150505432   15.07988623997601
C         7.58768660873674    1.30496478320807   16.31535467671290
H         7.36684588613185    0.59621611612350   15.53320236205865
C         7.86729345892905    0.85455678039703   17.59600260917352
F         7.84524820832812   -0.46375099590122   17.84231924904106
C         8.16905425240905    1.72362897984778   18.63119428745196
H         8.38527417645647    1.33192708995912   19.61263638522908
C         8.19046179600306    3.08294398174282   18.37858596359661
H         8.42749404770508    3.77424254895520   19.17380086180816
C         6.16066543423035    5.80944899556422   16.81115682403395
C         5.19455212109496    4.97544934412445   17.36578667660825
H         5.47228155107933    4.00460505825885   17.74866029555470
C         3.87631141889492    5.38853931507721   17.42655819675892
H         3.11026576739041    4.75901055895693   17.85097913418927
C         3.54116248254557    6.63513900210287   16.92513373618684
F         2.26220693075690    7.03506875872798   16.98413236629455
C         4.48573537065837    7.48084429609402   16.36488143284748
H         4.18402129625423    8.44056895705170   15.97699194015441
C         5.79888250301087    7.05957013155866   16.30864457735083
H         6.55430640748920    7.69646982653546   15.86752427939442
C         9.76278854626809    8.96852104431259   14.20544055481584
C         8.80400330421450    9.16769259131063   13.21101284076621
F         7.64230288632402    8.50864088997404   13.32459578338315
C         9.04791672509345    9.98427646883072   12.11991393779113
F         8.12552077378662   10.14917190224438   11.17379670370043
C        10.27580720179984   10.64051379862046   12.02461029396432
F        10.52353793539291   11.43619591014992   10.98692421955759
C        11.23721977777291   10.46963541705716   13.01669567462169
F        12.40317552093467   11.10715294523433   12.92631487792792
C        10.97935411524276    9.63621835978211   14.10206842587946
F        11.90464460355019    9.48034770113354   15.04528489066220
C        11.74409349993917    4.39360928626474   13.99598423797363
C        12.13420367500145    3.45306432982045   13.04714242725838
F        11.44992441093421    2.31953689805333   12.91730238168021
C        13.23777492977061    3.68912580736680   12.23197518698394
F        13.60799389868748    2.78355863473990   11.32824621947587
C        13.95928382012749    4.87280679242231   12.36119557784763
F        15.01275354031360    5.09833886456971   11.57987147787029
C        13.58476339062457    5.82087613828661   13.31421309657970
F        14.27525988739531    6.95245915991432   13.44047731744801
C        12.49184942839193    5.56482571488523   14.12489364648050
F        12.09475822509141    6.46105650390971   15.03881062647999
C         7.27185120085872    5.26146821207714   11.95297047526653
C         6.70051382588494    6.07032164783834   10.97514121355715
F         5.87154159939377    7.05036758845297   11.32523447411566
C         6.98985673140263    5.86239858161996    9.62893793791249
F         6.43779237694468    6.64008942051054    8.69915101148013
C         7.85549228765803    4.83972305585322    9.25129836936348
F         8.13291011084116    4.64290826308601    7.96457602552315
C         8.42810732872878    4.01482488121702   10.22027657221911
F         9.25309094638449    3.03301618216138    9.86102628918809
C         8.12171638545613    4.22895666060132   11.55352725878516
F         8.66902609271940    3.46649197054841   12.51033521553846

