101
CSD_code = KUSHOX | q = 0 | S = 0 | Stoichiometry = C42H47Cl2FeN3O4P2 | MND = 4
Fe       -5.17172848706053    7.57109463862353    9.75426667159343
Cl       -5.42730132281232    8.14919886766305    7.72626416125219
Cl       -6.60748487601275    6.70145041192442   10.84779828600799
P        -5.02878731869472    9.49148569897568   10.79900141808297
P        -2.71506188070008    4.79145796401051    7.09297726590710
O        -2.95491925607897    5.93971723604247    5.94587695494882
O        -4.18211162989127    4.07128889655001    7.06546289119391
O        -3.05610717433494    4.05375484416482    2.83334908530200
O        -5.01514183023271    3.23932608850228    3.62526592479574
N        -3.21069461899095    7.76676156726388    9.52524767656004
N        -3.33304335056282    9.72651381200620   10.71688602672532
N        -3.22755525925805    5.76437117392413    8.39325847389148
C        -2.55242017059485    8.81621978188639   10.05379052623266
C        -1.17277423166284    8.95186598301757    9.94993699903722
C        -0.45740554199481    7.97261118400714    9.27866730472513
C        -1.12500169554120    6.89139810643522    8.73836980225465
C        -2.50993658740088    6.81989655264627    8.87445375433956
C        -5.61757454093035   11.01480176580421    9.88251943922469
C        -5.35353199131693   12.33881521328267   10.59039744164295
C        -7.08314958020697   10.85132647380212    9.49107878573259
C        -5.26712993980651    9.84855575184531   12.61548486998555
C        -4.57108644230550    8.72608427633678   13.38111561316765
C        -6.75148415771865    9.88151073364340   12.96015754388436
C        -2.55414484701071    5.71785720567689    4.60557412220834
C        -3.02681222921930    4.28776921365932    4.21852078492690
C        -4.45725659840248    3.96477071383261    4.69361292929552
C        -4.54048988361979    3.17101685404283    6.02951878699008
C        -1.04560479803407    5.84892721573166    4.50625959446022
C        -0.27598906416283    5.04323614565250    3.67834282438407
C         1.09702055310863    5.21547912853645    3.62484402707472
C         1.71171587836631    6.18870762992469    4.39305255123050
C         0.94502623310746    7.00345181699246    5.20877622607709
C        -0.42662264338117    6.83906473452350    5.25975502155676
C        -3.20192375122211    6.78197345684456    3.73854056419214
C        -2.75407220828641    6.97113389800546    2.43578385782090
C        -3.34587331933564    7.92592275207625    1.62925846899021
C        -4.38263246800886    8.70541005967085    2.11525009729265
C        -4.81885772462085    8.52927527966721    3.41614264055375
C        -4.23315849587839    7.57272955101936    4.22868243470916
C        -3.65427083057167    1.94121538593213    6.06018298756128
C        -3.57863861298032    1.07170688769945    4.97625163178016
C        -2.75816356161674   -0.04090621559406    5.02315445759343
C        -2.01271696365004   -0.31404608542586    6.15725441145867
C        -2.10786960123311    0.52710801066228    7.25105955268339
C        -2.92472396035668    1.64343154984573    7.20484571961038
C        -6.00993759004848    2.84070365740759    6.26803493196385
C        -6.51770549174333    1.55588409932772    6.14798503119063
C        -7.86353968807421    1.31448958632507    6.36633716914941
C        -8.71408585759247    2.34875412188952    6.71325374227882
C        -8.21100168455900    3.63187153503303    6.84165808085723
C        -6.86897045349534    3.87689809929300    6.61821839793015
C        -4.36223838654689    3.64206792201487    2.43991992532504
C        -4.24205505380234    2.44621158557502    1.49533188880001
C        -5.12510853928611    4.78634985852154    1.76332247572042
H        -0.68219422120076    9.80917026969811   10.38184420026615
H         0.61356803881842    8.05540710800146    9.18034659403010
H        -0.61310777419869    6.10725257786203    8.20492884639065
H        -5.02026270564974   10.97673116658006    8.96013060446811
H        -4.30870722482620   12.43335945097205   10.88190115817334
H        -5.58850259512597   13.16257793023560    9.91823849426704
H        -5.97503259538978   12.44352768625959   11.47631281513848
H        -7.22030488433519    9.90126179587640    8.97781771813647
H        -7.73481139539815   10.87077130445544   10.36067950930406
H        -7.38452671819411   11.65127008878480    8.81716701915597
H        -4.79599379331144   10.80841743520538   12.86085548115402
H        -3.51003781291091    8.68117170097394   13.13947031726630
H        -4.67388067175612    8.87424042371832   14.45459410062149
H        -5.02248556244449    7.76991889045233   13.11982644280958
H        -7.24317220380452   10.75058012371884   12.53038458800636
H        -7.23731200069227    8.98353155158286   12.58237665375589
H        -6.88755060809365    9.91689001753338   14.04009458351955
H        -2.31583952583168    3.58109841737374    4.68679516191213
H        -5.01773844747687    4.90053689062644    4.84425782875957
H        -0.74840653294573    4.29054973285059    3.06652188856901
H         1.68852322513246    4.58392850263450    2.97823862571704
H         2.78348475557717    6.31617861377783    4.35101368525624
H         1.41426357276435    7.77364484893496    5.80330178160864
H        -1.02954693852680    7.47921902880186    5.88649721646262
H        -2.99270349686761    8.06418034903503    0.61754215308885
H        -5.61827796228802    9.13687918604723    3.81252387219912
H        -4.56997465703874    7.46635076666466    5.24838806336380
H        -4.17054447865372    1.26878898239800    4.09856120962298
H        -2.70696481282181   -0.70134932725734    4.16963714497891
H        -1.37251812304208   -1.18303265547580    6.19176144836231
H        -1.54837432844170    0.31435557783588    8.14971199199796
H        -3.00450607245841    2.27753755201746    8.07479784012276
H        -5.86694596756523    0.73594452629539    5.88752153910862
H        -9.76273274558862    2.15582195593153    6.88572571775793
H        -8.86354768266949    4.44708142912741    7.11689196206085
H        -3.56148800842726    1.71087536747154    1.91538167945851
H        -5.22219170028934    1.99906121038352    1.36177448079176
H        -3.85450149714295    2.77946987356888    0.53804020424025
H        -6.08107328028033    4.41195707854261    1.40855012436968
H        -5.29949338731812    5.59551980326135    2.46638117808543
H        -4.54464129774800    5.16785336241288    0.92924985379999
H        -6.48617466307293    4.88058097928596    6.72850894618711
H        -1.94740421834727    6.36476204018436    2.05480244753461
H        -4.84243423541491    9.45108894800751    1.48308646885345
H        -8.24587857315364    0.30890464508914    6.26803922669661
H        -2.86353131463707   10.51686782902054   11.13857963271750
H        -4.24338935054291    5.91239228650572    8.38379524773250

