69
CSD_code = KUSYII | q = 0 | S = 0 | Stoichiometry = C29H34AuClN3P | MND = 2
Au        1.80322878329360    8.53978783662427   10.66824777579711
Cl        3.86558020238158    7.70187514380239   11.03190249310734
P        -0.25922065221658    9.28509688408759   10.22964161049568
C        -1.50206743777340   13.58984890187804   11.13970395280413
H        -1.78053719903217   14.60967065401050   11.35985569797467
C        -1.48997241583302    8.05843647136867   15.80812556880600
C        -0.78211165068707    8.85800210736250   16.69489322974460
H        -0.15275827573431    9.62800740658234   16.27942322557438
C        -0.88572339767872    8.66173500264702   18.06606003736598
C        -0.79186464265251   10.03009386940076    6.21595893811499
H        -0.90596024809379   10.88300939165721    5.56326817585441
C        -3.29733187220541    5.71148171903550   18.23008636476965
N        -1.48518644113786    8.30334420424364   12.22817343642889
N        -0.48208942450741    9.19641128609189   13.87427577532076
C        -2.31178507235417    7.04048966021619   16.28798941257276
H        -2.84407587769286    6.42807780148918   15.58000930394910
C        -2.40732231540757    4.74879563472573   19.02884799479593
H        -3.00480330171746    3.93497535349255   19.43444707062874
H        -1.91693919191270    5.25484060788635   19.85557617858567
H        -1.63896210465150    4.32602195789236   18.38489939336099
C         1.39893134167342    9.41427042269561   18.69431804193448
H         1.71344337045204    8.38277270674835   18.83909232236677
H         1.98291247783847   10.04926448437945   19.35734468900210
H         1.62040193237892    9.69616435282021   17.66915659751055
C        -4.35659258817061    6.32940155341017   19.15343098764738
H        -4.99944192149867    5.55055050614815   19.55848409048856
H        -4.97430327657574    7.03366247928164   18.59959530055961
H        -3.90005643230533    6.85809090658098   19.98530527466336
C        -0.75292880629480    8.75173018096734    5.68629884550551
H        -0.84301083470505    8.60469479292134    4.62055163733977
C        -2.40689554928260   12.75097976694766   10.50822870620602
H        -3.38634291659235   13.11721771841363   10.23680599741112
C        -0.67765522993123   10.22412517118300    7.58188934465373
H        -0.69453894065151   11.22566819868061    7.98802342472624
N        -0.56973879639418    9.18436962806981   12.60111665906255
C        -4.02269154014411    4.90214258939354   17.15118959361421
H        -3.31423920789888    4.41218678846210   16.48703654767488
H        -4.68558092383319    5.53549910689625   16.56552713044024
H        -4.62750951275862    4.13031978960861   17.62299516813915
C        -0.24330194682698   13.12493222965512   11.48707091778844
H         0.45954819538781   13.78093709236134   11.97802467950206
C         0.11007347766317   11.81798323799083   11.20785035047422
H         1.07909562019848   11.42519258580334   11.48491674789468
C        -2.42933504534352    6.81863726073354   17.64900822981315
C        -1.35336540088156    8.29400148102861   14.38123079090690
C        -0.53287419423470   11.01653611181542   18.77800684652203
H        -0.33969633354388   11.33130553613873   17.75653071686242
H         0.01120498199031   11.67866808540651   19.44827081537617
H        -1.59783316713734   11.12601127971538   18.97413890110778
C        -0.79716053999460   10.97665844173856   10.57480322000273
C        -0.31554074713271    9.22154522804456   20.48121730525782
H        -1.35970198512717    9.34157421449071   20.76223295387604
H         0.27605282663399    9.89472744686537   21.09832798024207
H         0.00075927107963    8.20416311218138   20.70022344401088
C        -2.05818089838137   11.44407629780284   10.21914499859984
H        -2.75784185640155   10.79537875768967    9.70788260939506
C        -2.01484761238582    7.70542056976329   13.30702591563290
H        -2.77423619807547    6.95591512190166   13.24128060600477
C        -0.09694918106393    9.56205872902024   19.00448080621554
C        -1.71214346758749    7.64213547368271   18.51626366406265
H        -1.80598356565053    7.47088330013524   19.57496530192178
C        -1.65454830515693    8.20659435466827   10.81913359072575
H        -2.63250129186645    8.58363041132998   10.49169978967659
H        -1.53131205803954    7.17766497609730   10.46383601732322
C        -0.53881271025966    9.13206689768264    8.43096970182814
C        -0.57583184393800    7.66072233343168    6.52345493962017
H        -0.51810627544003    6.66439733239465    6.11092725798964
C        -0.45655500605296    7.85135438916345    7.88583520771695
H        -0.27683485214427    7.00501467332209    8.53736969862571

