89
CSD_code = KUTXUU | q = 1 | S = 0 | Stoichiometry = C35H47N2NiP4(1+) | MND = 4
Ni       14.25410393178780   12.69770107748520   12.80103611508268
P        15.32614896770507   11.02608595628390   12.16782323775778
P        16.15392393027356   13.79313337850502   12.88391134254314
P        12.95960216903851   12.20640149747231   14.57744401278694
P        13.00779060001047   13.63748101496170   11.15140574270809
N        15.89402781649683    9.67478480058875   12.89956991687798
N        16.79165972893957   11.30230403169693   11.42874274196858
C        15.07950063644502    8.81603153641295   13.68590381060630
C        15.35922071815969    8.62802995856528   15.04154596031748
C        16.49711326898346    9.33715250234955   15.71095837073544
C        14.54377873460517    7.78272136976058   15.78122641029069
C        13.46078681492998    7.12986425306340   15.21234937087001
C        12.60318579119877    6.20954811340731   16.02045348026517
C        13.19953128991866    7.33938104417024   13.86464744742300
C        13.99229896100976    8.17031946568547   13.08785357446798
C        13.67125039898139    8.36696829373155   11.63673029560275
C        17.29115612022485    9.34600706603283   12.63352627139360
C        17.64061736868937   10.12158763547135   11.36837010042398
C        17.07342419387600   12.43853087783560   10.64861926415840
C        17.60132430788462   12.32515673957329    9.36975820034875
C        17.86257753396936   13.46060216989594    8.61951926731295
C        17.58996843857532   14.71465511773880    9.13664543334391
C        17.08283602768925   14.83698562833827   10.42044528500627
C        16.84391440037951   13.71197186827308   11.19715165327803
C        17.55928914813591   13.16175904612678   13.86250548081768
C        18.83873555861918   12.94160762841823   13.36689593161136
C        19.83059319902714   12.46626878883903   14.20792856909007
C        19.55839445296008   12.21990895151465   15.54370161016861
C        18.28692389132699   12.44893650930480   16.04566890690540
C        17.29195452586036   12.91125509759076   15.20512975583429
C        16.20512402007204   15.55258025902328   13.32921858404807
C        17.38899294242898   16.28324029392662   13.36592518859334
C        17.35706469958251   17.61287513101447   13.74269243422606
C        16.15563734625647   18.21280082788791   14.09118600904976
C        14.97916861424709   17.48194304241519   14.07189332638055
C        15.00569982154116   16.15126063407208   13.69555642110957
C        13.56871643016148   11.63502412488671   16.21123132721257
C        11.67199617586968   10.93000627741553   14.28946009232736
C        11.91702886898749   13.61890006387077   15.11884661219501
C        11.26460396875397   13.09801304197980   10.94098193896758
C        13.64037010721826   13.27276188496469    9.46370290684111
C        12.79747810604436   15.45378757765751   11.00842935227918
H        16.61200160172434   10.34625266777208   15.31740898211353
H        16.32522211520432    9.39676942612243   16.78288379376285
H        17.43065728788227    8.79538233467860   15.55893236972955
H        14.75909719755330    7.63720322879278   16.82965041590904
H        12.92636629714363    5.17927747733024   15.87176162382243
H        12.67766672999677    6.43605860616349   17.08064556406677
H        11.56235995234293    6.27869344563608   15.71339690553740
H        12.35910708073058    6.83831052848759   13.40714815988695
H        14.57142417966480    8.32875629037738   11.02404249626598
H        12.98672199663809    7.59495582682373   11.29547717346346
H        13.19483656355242    9.33696903341346   11.47874395274881
H        17.40024271090763    8.26802589816785   12.50188994315269
H        17.92576550463859    9.66846660903612   13.46447438017754
H        17.42774526262689    9.52447721964280   10.47291192293336
H        18.69024998777246   10.41976277192894   11.35134432919698
H        17.79825386403588   11.34987554006505    8.95180116175658
H        18.27127281694995   13.35938723699825    7.62635083490487
H        17.77845932985285   15.59787873315057    8.54659262090083
H        16.88135859782093   15.81664118723392   10.82916685149736
H        19.06424537040175   13.14542539555307   12.32926835407173
H        20.82423338132365   12.29552189674981   13.82010670831259
H        20.33816858965976   11.85463533513590   16.19433457672454
H        18.07476113164048   12.26279963671379   17.08788673452664
H        16.28845581509924   13.08734925170956   15.57374213040203
H        18.32449916049778   15.80954046627719   13.10295568215433
H        18.27221120535705   18.18507338715939   13.76944390517345
H        16.14018457189904   19.25121783412471   14.38508800579523
H        14.04687188658988   17.94886254142242   14.35307785169157
H        14.10116639420802   15.55305130813676   13.68217927872992
H        14.25919038374386   12.36452558148684   16.62905095954732
H        12.72958168088286   11.50738836750930   16.89332458845251
H        14.08394785444506   10.68511478753467   16.09267944165229
H        12.15164146076059    9.96258514933209   14.14970888807492
H        11.10434436130416   11.17212024675985   13.39377409863705
H        10.99657422398031   10.87791355027831   15.14193063064067
H        11.20275509410941   13.29671751992097   15.87512603942102
H        11.38051737695214   14.02892486312816   14.26476855081531
H        12.55475903561238   14.39781886046810   15.53453931732745
H        10.82420772939310   13.57312992803515   10.06579992994577
H        11.23169450701784   12.01662362046685   10.81814756596344
H        10.68549268610473   13.36522083657820   11.82310884819289
H        14.63180136124650   13.70563545892398    9.34235394920874
H        13.71428772541853   12.19474656118960    9.32659476342914
H        12.97038953385602   13.68828738072497    8.71256662227630
H        12.25605209158312   15.69848225065967   10.09587453568697
H        13.77598448062986   15.93112213806011   10.99051965694740
H        12.24325780226001   15.83098720600094   11.86603315115561

