29
CSD_code = KUTYIJ | q = 0 | S = 0 | Stoichiometry = C14H8MnN3O3 | MND = 6
C         4.09796213641962    0.81747493310640   10.54731175971800
H         3.63472051633673   -0.14133455886138   10.74499116889261
C         3.51466960423448    1.68426722790758    9.64548525280491
H         2.60422675866246    1.40087568514317    9.14285249064691
C         4.12036992657806    2.90989795921177    9.39895059264114
H         3.69564943852559    3.60885156948145    8.69565293579038
C         5.28211597845260    3.21054679572782   10.07846573862971
H         5.77648844324471    4.15314936965682    9.91106313180026
C         5.81639806074822    2.28704140994625   10.97822285071874
C         7.03621568408458    2.51423090835501   11.74524187221815
C         7.80409629267007    3.67621148253248   11.65576773290090
H         7.51294388011071    4.46853253585908   10.98615411607542
C         8.94278202687756    3.80417760138648   12.42311069220754
H         9.55225857171080    4.69210815186531   12.36255752024937
C         9.28152018605539    2.75932082497142   13.27358216906607
H        10.15939167446832    2.80976860069912   13.89700129021108
C         8.47828423377661    1.63757034658659   13.31052179639265
H         8.73525866526355    0.81630884695013   13.96813689669962
C         7.27632648323851   -0.54969772994285   10.90133906481717
C         7.28039265442371   -1.17589545013621   13.42969888123399
C         5.20874338481528   -1.56784498299320   12.11090469859743
C         5.21734428131621    0.35331077593677   13.87335548634123
N         7.37559410809266    1.49423395070450   12.56696601333945
N         5.22758311867217    1.09097355282901   11.20953161686004
N         7.89617692409456   -0.58614842272573    9.93590929444206
O         4.58327431233626    0.63719926270103   14.78539773345867
O         7.95053146836705   -1.88496953280225   14.04016058749308
O         4.59674244655373   -2.51996501058731   11.90251446553808
Mn        6.20333873986987   -0.12729610350917   12.46515215021547

