81
CSD_code = KUVJOA | q = 0 | S = 0 | Stoichiometry = C31H44NiO3P2 | MND = 4
Ni        0.30335731604566   -0.16095021814510    2.63443253453034
P         2.51553323600784   -0.15517273890328    2.14491500391498
P         3.62518840941297   -0.14717267966556    0.45037206244048
O         0.07689175510210    2.47564696670896    3.90239595232072
O        -1.22855999536676   -0.61351926084163    0.17441242191416
O         0.00444457840779   -2.51424007320923    4.36840933755348
C         0.10696727861626    1.44044890743621    3.42527400885238
C        -0.57014559377599   -0.38769997010420    1.07780423302068
C         0.11169734470228   -1.59054579508901    3.70926978094484
C         3.77577373144108   -0.19297734410699    3.54076830768193
C         3.21264787532418   -1.21587412259208    4.48502340121997
C         2.59138830504202   -0.57780522977806    5.50343291234639
C         2.74973234953267    0.86121155206171    5.34015459329082
C         3.47317657653238    1.11259081128873    4.22493780430250
C         5.20688863606393   -0.41337177793514    3.09591651638484
C         3.38457738404618   -2.67540998597721    4.24464757745915
C         1.88661803240079   -1.16937877170662    6.67573570028715
C         2.21982488946298    1.84481062859419    6.32587434199749
C         3.94743630622899    2.42128362295983    3.69378407935826
C         2.26964617787342   -0.06667904943931   -0.78704306955458
C         1.76233289752691   -1.26312593280084   -1.33862365402339
C         0.60925077974951   -1.19610133046743   -2.10810674917081
C        -0.04162762427999   -0.00387583172029   -2.37892833746148
C         0.56277925022670    1.16117295316180   -1.93781667912099
C         1.72345386107929    1.17353517549800   -1.17714194833786
C         2.45838172948062   -2.62218128215058   -1.19020041011792
C         3.89234544828551   -2.50759800577825   -1.72769242851337
C         1.77770504907545   -3.72499330588328   -2.01668437830437
C         2.46914208524516   -3.10748606127711    0.26903467788650
C        -1.31013746687214    0.06958216347763   -3.21453743686835
C        -2.34749849892952    0.97364275220828   -2.53524338977020
C        -0.93973789279525    0.65332559125712   -4.58605952545421
C        -1.95406963123557   -1.30422390122654   -3.42380596332298
C         2.31677724838676    2.54867545259752   -0.84567314842065
C         1.94725328999932    3.58533293952603   -1.92447978585452
C         3.85070051765640    2.53372544283715   -0.78732084496348
C         1.73945705500741    3.03510675540540    0.48913316350237
H         5.85127397581884   -0.44951072085357    3.97328878231410
H         5.30207992259442   -1.35096771976869    2.55145355299201
H         5.54391406724922    0.39495014453898    2.45024698435994
H         2.70354079647659   -3.26015010753152    4.85767460041261
H         3.19566733718445   -2.91258640348536    3.19695561652559
H         4.40563133508349   -2.98056805486933    4.48088011914212
H         0.87852377625740   -0.76347860046620    6.75610533180931
H         1.82046425849323   -2.25064278804663    6.59448885165740
H         2.41850430611237   -0.92341950251644    7.59488779514322
H         2.36374293370370    2.86397823504395    5.97796219726159
H         1.15665376645583    1.67864488912623    6.49590922692576
H         2.73073440504007    1.72967492634879    7.28204933503994
H         4.13648590925410    2.35085482684666    2.62294783762364
H         3.21288654494595    3.20639120623112    3.86425502380348
H         4.87781345880569    2.71524608877877    4.18304350847430
H         0.18871630832593   -2.10215513935574   -2.49759959633492
H         0.10179509193787    2.09625945849590   -2.19747213474483
H         4.46764251609608   -1.75889675692023   -1.18501134857819
H         4.40419584081437   -3.46286133639854   -1.63012105789816
H         3.87518794894834   -2.22826701637837   -2.77946995017085
H         0.77952657393171   -3.94355899895621   -1.64425321492442
H         1.72513194556343   -3.46201266641351   -3.07066646314150
H         2.36749064494965   -4.63648205515895   -1.93547211927315
H         1.56277364689195   -2.79230701577874    0.78780402321708
H         2.52169491561268   -4.19396451597578    0.30357878731009
H         3.33272314361410   -2.71852241553544    0.80544767491869
H        -1.99495847816662    1.99710877737666   -2.44328954119478
H        -3.26509226822152    0.98906745185151   -3.11984329972585
H        -2.57955177724261    0.60030842569054   -1.54125784435431
H        -0.19827483995837    0.02555481556670   -5.07665455016516
H        -1.82116605668542    0.70865406527489   -5.22149769262025
H        -0.52502876900956    1.65332337667044   -4.48510194444659
H        -1.32114467391903   -1.95343222725730   -4.02454066031068
H        -2.15563097874080   -1.78386883469247   -2.46891861072531
H        -2.89915105854116   -1.18621534427095   -3.95017044609251
H         2.17165849271928    3.20667353228915   -2.91926452274604
H         0.90006483916656    3.87152387493477   -1.87920266167273
H         2.52577836650332    4.49311326500457   -1.76602934071561
H         4.26135748664552    1.91472469458970   -1.58355906168064
H         4.23833708965570    3.54359085426470   -0.90715375335226
H         4.22016622292662    2.16526588874992    0.16776417350175
H         2.12927085421073    4.02132619942158    0.73382936405981
H         0.65402441531940    3.09234596914568    0.43251902422725
H         1.99555307246971    2.34987820809921    1.29638734212778

