62
CSD_code = KUVKAN | q = 0 | S = 0 | Stoichiometry = C26H34PTa | MND = 9
Ta        4.73383992390613    2.13806452348733    3.33453874784200
P         6.63507502864734    2.67621766806484    1.13119611448097
C         3.38400240838151    2.49702436015352    5.75860451808490
C         4.73744081387459    2.74962746575654    6.10468050417328
C         5.12716006971094    3.97036638197620    5.49651105907113
C         4.01631243204072    4.48045915659100    4.77893241380061
C         2.93305439740794    3.57744133539755    4.95011853734617
C         2.52186413527809    1.40373418738005    6.30910142967700
C         5.56037986507528    2.01590348016218    7.11617966599937
C         6.43258082470879    4.65281457476097    5.75701322375759
C         3.91803853131150    5.81354634433860    4.10534322581368
C         1.50941002261923    3.86568730031658    4.59192046756034
C         2.75616836258261    1.93269782664805    2.19530214818761
C         5.67374616311038    0.23463388415774    4.19454978352696
C         5.65677798893033    1.19735037111843    1.32064294444894
C         6.19470481894400    3.46071979500339    2.58331325140802
C         6.20061056126195    3.53720803853751   -0.41975185351586
C         4.84069372825586    3.75784705110533   -0.62075341226530
C         4.40992149361820    4.47598527090921   -1.71860216862281
C         5.33612298761131    4.99917991250739   -2.60951052302199
C         6.69050037385904    4.80918717576713   -2.39326380287786
C         7.12816330645788    4.08455315006647   -1.29763789237111
C         8.39004317936265    2.22016962644979    0.91247846929698
C         9.29476907821425    2.52948324490598    1.91797478540193
C        10.61543514574550    2.13190845211636    1.80434179826151
C        11.02768459112077    1.41568833196411    0.69247906828231
C        10.12090712975441    1.09184104986755   -0.30594680641342
C         8.80191805757180    1.49023207891359   -0.19783408643766
H         1.70101448081948    1.17342264246064    5.63144750135061
H         2.08946151410898    1.70339113541331    7.26662001483213
H         3.09442540535367    0.49138839868952    6.47249583347047
H         5.10277326256138    1.06883100945055    7.39236562969690
H         5.65405017510055    2.61815838792757    8.02272997548731
H         6.56605017216180    1.82352044884780    6.74297274455563
H         6.57697250555584    5.50199581311154    5.09419265072690
H         7.26496123881417    3.96202341238705    5.62473390900635
H         6.46428551625663    5.01917257780881    6.78552784398592
H         3.34935082789330    5.74190852649683    3.17881213383178
H         4.90282090259815    6.20830472494699    3.86827883935594
H         3.41293278983052    6.53137824150894    4.75543237470319
H         0.94280263158398    2.95177033377163    4.42420208365384
H         1.44483695419884    4.48361049643025    3.69848458473703
H         1.02642757727431    4.40924860632005    5.40773558272460
H         2.04672182574322    1.40511559585210    2.83719172343521
H         2.82201428323008    1.36186072578816    1.26851399169049
H         2.31201005751250    2.89771105810683    1.94895272333204
H         5.30176044500662    0.02376827936168    5.19544528308314
H         6.75992933021824    0.30885834270837    4.25431254764576
H         5.44159861777849   -0.63293610308597    3.57445797015103
H         5.01862962325720    1.02333369145076    0.45166911996895
H         6.31788155175523    0.33814957040423    1.45599501756039
H         6.56283905754912    4.46228263946544    2.78086368021244
H         4.13969363474444    3.35899036071611    0.10234152373652
H         3.35391738642832    4.63541880258764   -1.88216185894392
H         5.00100428209584    5.56382959578862   -3.46712012101058
H         7.41113098042945    5.23053813254283   -3.07939887999581
H         8.18604069923174    3.93910451384746   -1.12737325796268
H         8.94265315989003    3.07903519000335    2.78105595666317
H        11.32414437214999    2.37678602305793    2.58214563640500
H        12.05790891821288    1.10318840359987    0.60386019048275
H        10.44577983157716    0.52558119688334   -1.16695833200931
H         8.08275057060945    1.24338718727616   -0.96814622782568

