54
CSD_code = KUVRAU | q = 0 | S = 0 | Stoichiometry = C22H27FeNO3 | MND = 7
Fe        1.76432225526651    0.91745766711574   10.49275394925963
N         1.83285229783123    3.86813349425393    9.79417241442866
C         0.38829279918012    2.05075520426274    9.00490136330566
C        -0.60206569429857    1.17316972348722    9.61320397486728
O        -1.54506439956112    0.66847938668104    9.02126649317229
C        -0.26735701468577    0.88512213818393   11.07196754022758
C         0.24716236671986   -0.39799795226126   11.35011468790608
C         0.90492917702949   -1.14520756340560   10.35991403452247
C         1.60724012207840   -2.38882404943969   10.67430303707503
C         1.58058709157779   -3.45462488349915    9.77481068535700
C         2.22972234096447   -4.64020110816456   10.06219865009449
C         2.92604183443446   -4.78235780628656   11.25054934682532
C         1.35126848312503    2.64488106963139    9.82860853921606
C         2.97631171823607   -3.72511006854307   12.14555092845797
C         2.32810896587550   -2.54019057445901   11.86018734276538
C         3.31402491748095    0.53984259044598    9.75019732763038
O         4.37244024909932    0.34491763437206    9.34673921920395
C         2.63071647869190    1.21527471286860   11.98509303641933
O         3.25833937468615    1.37644498320453   12.93704924591452
C         1.12965849512075    4.98690589809629    9.18557041766320
C         1.79929366460281    5.47976895170390    7.90538214678992
C         3.02991919473298    4.20125337845752   10.54663691692044
C         2.70863289862971    4.66782226586822   11.96408126880968
C         0.23457157650545    2.32004579428380    7.52685684499192
C        -1.08158633493858    1.60370964007654   12.12811909296467
C        -2.48466209818696    0.98765259334489   12.16107819671741
C        -1.16702250256755    3.10257888727408   11.85254288508989
H         0.29216891067832   -0.72574443999496   12.38590469415876
H         0.50363275777242   -1.10936630913250    9.34744554510843
H         1.03681706622507   -3.34987131557258    8.84635883292068
H         2.19404473854208   -5.45695612332200    9.35571560546293
H         3.43562720079487   -5.70782371873383   11.47439488751850
H         3.53225682919521   -3.82474958914485   13.06665071004607
H         2.40223059058797   -1.70578631389753   12.54408345786282
H         0.10755517044753    4.67133673250496    8.97506727800331
H         1.08888475083163    5.80527358862755    9.91114873622551
H         1.20223287774427    6.27532798433698    7.46746076309037
H         1.88707023289370    4.67392706287424    7.18286543255291
H         2.79334379407650    5.87140639998034    8.10601196405448
H         3.65450214868139    3.30605322966327   10.59072712917445
H         3.57154116056802    4.98256348974857   10.00968403934855
H         3.63067203285039    4.87954199908170   12.49700851778157
H         2.17376009212224    3.88689103742261   12.49750774970120
H         2.10023937740278    5.56929392345876   11.95743471737222
H        -0.26184788135935    1.46276743366933    7.07473368180734
H        -0.39077584918159    3.19361751525036    7.33693699022680
H         1.20141221284291    2.46406433611111    7.04876996302767
H        -0.60242518214178    1.45301658388612   13.10384269517933
H        -2.43361159627241   -0.06028026475491   12.44716951857486
H        -2.94033356766233    1.04914461399255   11.17574498130261
H        -3.11491729149011    1.51476240736423   12.87438003011738
H        -0.17147984128784    3.53965849249312   11.81787453688462
H        -1.73635698856055    3.59836630992881   12.63573853186193
H        -1.66272200392774    3.28326292660434   10.90078942404153

