81
CSD_code = KUVWOO | q = 0 | S = 0 | Stoichiometry = C38H37NO4Ti | MND = 5
Ti        3.79474619013969    4.73690648817022    2.83537575343122
O         3.54183901578223    4.99332570594664    1.13186329180579
O         5.18399993894201    4.81081413953377    3.87192031084452
O         2.49436187487371    5.34454920542608    3.84562046695355
O         3.45468091689387    3.00702822209549    2.92607403130057
N         4.31425479067443    7.03683781902159    2.55071508553654
C         3.87389473697158    6.08274893984004    0.35881647284427
C         3.78174527789394    7.35242589284914    1.22651753847404
C         6.02121058479269    5.62681194364710    4.48396588143973
C         6.37478631779900    6.85542315558579    3.90107988524358
C         7.25980020131491    7.69944659682648    4.55390832261024
C         7.81129374838193    7.35774873931020    5.78002185222283
C         7.44645480068956    6.14531487797811    6.35578270887647
C         6.56588006928902    5.27840573048904    5.73591914962543
C         5.77311456736125    7.20723559519526    2.56789690846791
C         8.78873498013086    8.26509856020812    6.46663007308101
C         6.15602551496867    3.97124991294053    6.34654744826638
C         1.68724661921357    6.37849748007193    3.66798648879138
C         2.19513495351181    7.68875368751725    3.58979564765902
C         1.32332800124695    8.76030262876878    3.46839079153036
C        -0.05094486320403    8.57381516987641    3.41269798628134
C        -0.54181191441037    7.27423882160802    3.44612063559823
C         0.29653994877531    6.18046662454180    3.56670430037334
C         3.68774719368778    7.87599306383284    3.58541298329316
C        -0.97473570350509    9.75161515590768    3.31295898828403
C        -0.20764327605442    4.77074170042098    3.57137885445277
C         3.28689554585293    2.10108724204380    1.98573955491690
C         4.22892501687876    1.96268511671850    0.93785832768608
C         4.01829213635174    1.02478978319469   -0.06473890411263
C         2.90758925584510    0.20061186564329   -0.04452118463149
C         1.98947534007157    0.31662992458849    0.98297338837618
C         2.15438848188762    1.25138850993325    1.99879346011682
C         5.43258643630111    2.81261140448048    0.92878017551012
C         6.20563430770581    2.96557558699574    2.08428984881786
C         7.34998644184077    3.74795974339875    2.06567636581358
C         7.74122768968432    4.38699871729879    0.89974893983228
C         6.99525939848893    4.22115189268082   -0.25709959922395
C         5.85412503779094    3.43874678029238   -0.24502823381963
C         1.15915441123376    1.35790329765331    3.07864918817533
C        -0.20105755951372    1.23116848394518    2.79706156547021
C        -1.14331018117557    1.30703848882043    3.80533237805641
C        -0.74591869750291    1.51307504749987    5.11565937022275
C         0.60146960428089    1.64772927927872    5.40731652777806
C         1.54731732317354    1.57188417952841    4.40133527723188
H         3.18428357064031    6.16807138344882   -0.49947068473873
H         4.89882462084607    5.96536046722093   -0.04220137454602
H         2.72458289987793    7.61606938937426    1.33431557662386
H         4.31401599431957    8.19572628844743    0.75758711960685
H         7.52448102883101    8.64287759397944    4.09534889338295
H         7.85973127860429    5.87308713115164    7.31720508240772
H         6.03468507979488    8.25044053463975    2.31287321628587
H         6.19452018383722    6.54330617865321    1.79832545953826
H         8.67475567997540    9.29016784041224    6.12255617550190
H         8.64848619510975    8.23830971367360    7.54493448469493
H         9.81035819288046    7.94805433240941    6.25406144109177
H         6.22513131922135    4.00799296625147    7.43119305104338
H         5.13049231450472    3.73967778971303    6.04727463552766
H         6.79967528102799    3.16694659617876    5.98711052257323
H         1.72561814450375    9.76336418804863    3.41532750960638
H        -1.60780855575592    7.10904831836038    3.37122200023136
H         4.10574417099500    7.57493045367738    4.55530537953456
H         3.93366382297267    8.93844034475553    3.41598176332627
H        -0.60322459904408   10.47474922964990    2.58908796080287
H        -1.97153557874358    9.43745620828717    3.01457952752578
H        -1.04985846816226   10.25397207004713    4.27765792782043
H        -1.25110958420145    4.72100238815843    3.27012658978025
H         0.40056827987417    4.16445052354612    2.89235006727555
H        -0.10691242136806    4.33467122546843    4.56597045401000
H         4.75287149593150    0.92318193762896   -0.85129932919114
H         2.76399966362603   -0.53663146915913   -0.82009143042903
H         1.13607759588367   -0.34540177314992    1.01467807744273
H         5.93572414623701    2.42289622252302    2.98372288405173
H         7.94622037689334    3.85288686399518    2.96194610856534
H         8.63177173107273    4.99933504394570    0.88865064784030
H         7.30761905743516    4.70305512129204   -1.17373061955123
H         5.27193870540482    3.31767642978144   -1.14788652374688
H        -0.52205742203913    1.08920836207540    1.77510751042972
H        -2.19312787810331    1.20725120532732    3.56840378140174
H        -1.48255702157382    1.57152712057875    5.90398433293113
H         0.91774798324102    1.80899121158811    6.42825993073678
H         2.59667824009983    1.66711936641746    4.64260354711827

