67
CSD_code = KUVWII | q = 0 | S = 0 | Stoichiometry = C28H33NO4Ti | MND = 5
Ti        5.87454951576128    4.73719721285439    3.02838430950663
O         4.60860414614086    5.48358751077307    3.96757645579830
O         5.83048508098450    3.29349615477702    2.02618954351319
O         7.36591130392186    4.74904432937424    3.95531576178313
O         6.01495361699222    5.96411545081874    1.77743686271135
N         5.23477712072977    3.02123196320397    4.72811476756000
C         4.23465764083616    5.16608935487609    5.25381141199631
C         4.06802582063567    3.63783671065723    5.34821066072826
C         4.64383465943336    2.71925972232847    1.84139660863059
C         4.07965935268572    1.93106751267653    2.86044210188743
C         2.83769803626065    1.34439512196427    2.67167077637532
C         2.13879727371496    1.50810378522201    1.48407305478160
C         2.71856299001611    2.26450586463986    0.47089873708757
C         3.95629238367911    2.86551241992992    0.62139917590057
C         4.89526462396620    1.73471890672137    4.10984474120769
C         0.78633770943377    0.88965793980931    1.28722624127446
C         4.61596176773303    3.63701084568670   -0.48455296407421
C         8.00477524700030    3.57883151306486    3.99165719237404
C         7.61075726727697    2.59108771038061    4.90790863170332
C         8.32886690038529    1.40832530077776    5.00181790900522
C         9.42505297370830    1.17028225083105    4.18615079951170
C         9.76071341825902    2.12375238523057    3.22918703577352
C         9.06813526153374    3.31529415688030    3.10951709229219
C         6.34471256548405    2.85425632968085    5.67756137513051
C        10.21923446099829   -0.09749655651595    4.29870186840142
C         9.36557264874941    4.32964744630539    2.04524056738807
C         5.57128242870649    7.20562878884805    2.00710018560264
C         6.44542117804456    8.18229063879667    2.51699497108296
C         5.98408705395763    9.47380319887809    2.71552414593421
C         4.67399521083426    9.81276161914404    2.42651708020157
C         3.80861207044878    8.84682628739894    1.94361565880402
C         4.23427415134302    7.54510097523904    1.73012210403777
C         7.85752679570543    7.78689930239327    2.83700246622266
C         3.29510916852117    6.48997677715492    1.21846845574765
H         5.00358516937635    5.51414837972823    5.97097582313286
H         3.28191649427446    5.66305282028912    5.50684732085329
H         3.18381932847449    3.36272459585822    4.76231982448416
H         3.92587912662114    3.31192426160109    6.39101926830673
H         2.41436332987876    0.73898389182381    3.46236822500162
H         2.18937990760668    2.38314262312686   -0.46463287539738
H         5.83884860058263    1.24792837361691    3.83234422783339
H         4.36174228595972    1.08455333471374    4.82411793670337
H         0.57192461759990    0.16648438674266    2.06989138058533
H         0.01299094886281    1.65776460001512    1.30840897260040
H         0.73049590648576    0.38837976569735    0.32284145494301
H         5.29658846722268    2.98314879816614   -1.03282780733526
H         3.87861997406912    4.02666141500937   -1.18288538441168
H         5.20704068381163    4.45603490909076   -0.06374636331213
H         8.02103764890819    0.65929245397598    5.71944626785075
H        10.58126873605171    1.92250813895004    2.55413554697080
H         6.45238165476574    3.78687500977361    6.24410235437577
H         6.13508933471315    2.03249412907463    6.38325733566668
H         9.79008374906456   -0.76033774976493    5.04566871133712
H        10.24408629636600   -0.61929828231441    3.34302556220265
H        11.24740099359868    0.12370577399696    4.58332314401735
H        10.04449609596547    3.92264045305009    1.29935105247568
H         8.42231647033332    4.62870796569514    1.56511589938055
H         9.81783932724208    5.22017136035088    2.48523040586337
H         6.66068612884294   10.22179927106057    3.10533601529148
H         4.32682733518646   10.82319507101740    2.58370870531539
H         2.78093322285777    9.10608140066394    1.72917481214189
H         7.85178493325724    6.93008894418515    3.52089061100974
H         8.37631091519775    7.48663474511500    1.92471030413637
H         8.39692492265254    8.61373421501017    3.29428968035575
H         3.48363862748736    6.29430037323105    0.16179809176819
H         3.44597693008474    5.55643238449635    1.77568322214132
H         2.26181999270835    6.81274325615237    1.32968448781944

