74
CSD_code = KUWBUB | q = 0 | S = 0 | Stoichiometry = C34H28F4IrN3O4 | MND = 6
C        -1.95522241221232    3.87477501801492    9.86095756139456
C        -1.92689123800653    2.52212554905504   10.26673141043827
C        -1.23313671109005    2.18394064195852   11.43170457365687
C        -0.57196257587374    3.14313313856836   12.17069082862058
C        -0.57937460222832    4.48782257420010   11.77450559493882
C        -1.28378740265553    4.82254312634106   10.62171713217994
H        -1.31014109557172    5.85545707834112   10.31344983667250
C        -2.64799919602334    1.59883476271490    9.40495216366127
C        -2.68416443788711    0.21306550038105    9.55174726650743
H        -2.13281522615332   -0.25956561872847   10.34584535567421
C        -3.41081721377563   -0.57521139328856    8.67371289477882
C        -4.11199844814767    0.07478302344384    7.65965588078475
H        -4.70412080599475   -0.48288357282561    6.95116270280345
C        -4.02995794490031    1.44728488961127    7.56033158203679
H        -4.56948140322533    1.96218589570861    6.77672364321160
C         0.15218312594411    6.71465407493699   12.21044822402529
H        -0.86176368164757    7.13712857302001   12.19449329862729
H         0.59647096802247    6.82739107202141   11.21221260023616
C         1.00474815151867    7.41921333707866   13.25379616304456
H         1.07014638837280    8.47888721929259   13.02470953059169
H         2.00345297829405    6.99215353413358   13.26538631961562
H         0.56413719691547    7.29172782877471   14.23839224278461
C        -3.42568987698101   -2.06240843874743    8.79646926690956
H        -2.67629307036913   -2.48867760169962    8.12926125640121
H        -4.39460052953442   -2.46620523157892    8.51171884605763
H        -3.18931099454382   -2.37135808317660    9.81109426930698
N        -3.31660599462565    2.20201710409172    8.39223754504128
O         0.09930497528285    5.34510970866580   12.56314265954340
F        -1.19121893671894    0.91369891772719   11.88770057610579
F         0.08586753710057    2.78637135490864   13.29215290107234
C        -4.44728399949528    4.98826559306817    9.09803203933295
C        -4.45927334710314    6.40311389985702    9.03282147073589
C        -5.53948926394395    7.09563631537947    9.58446214108083
C        -6.58011999649849    6.42388163135777   10.19278869806662
C        -6.57840345871244    5.02400169541036   10.28214787126406
C        -5.50421521079193    4.33736638392325    9.72337324194302
H        -5.48492695094543    3.26070855014963    9.78215170017834
C        -3.30143751274278    7.00086025088036    8.38370205385647
C        -3.04123486593585    8.36363642955268    8.25222813421571
H        -3.74140769484073    9.08696477051103    8.63324783430339
C        -1.87905298169811    8.80325617401659    7.63654304621395
C        -0.99116255424028    7.83622815496477    7.16564527292811
H        -0.06883519916470    8.12221504602981    6.68545158863220
C        -1.30232729586219    6.50198199484699    7.32194452775169
H        -0.63048933248313    5.72830821272520    6.97591935368771
C        -7.68297427849044    3.06123685028765   11.06491285408239
H        -6.80066011922269    2.71893171170094   11.62169373496147
H        -7.69013855342690    2.57205620072232   10.08115851890357
C        -8.95505065110273    2.73218838755242   11.82960416527519
H        -9.82235207424336    3.07765007333883   11.27412970114959
H        -8.94432960415225    3.22867804118506   12.79556991396297
H        -9.02889068138396    1.65903354553981   11.97924306569802
C        -1.58644910077583   10.25841338873853    7.47492190049013
H        -1.70435253685800   10.54473912726235    6.42995569785134
H        -0.55983286959771   10.47611397507248    7.76254321883579
H        -2.26169741776853   10.86175631840677    8.07519868765826
N        -2.42358658025462    6.08647573384766    7.90507159615740
O        -7.63656071431151    4.46711421193970   10.90465455192203
F        -5.61244258341824    8.44355986362431    9.53476963538861
F        -7.61209725772039    7.11988752094418   10.71091087372048
C        -2.94429819063504    3.85054703665238    5.17275377746486
C        -3.28669679329121    3.87479419763242    3.82691403126715
H        -2.56685427530814    3.49998762537531    3.11577706455253
C        -4.52158781445599    4.37271483749287    3.45644457116672
H        -4.81779466742974    4.40727674418301    2.41849708361128
C        -5.37544580084391    4.82954482585013    4.45216507759104
H        -6.34897374008044    5.22809494114694    4.21364423095218
C        -4.95914139208640    4.76653806031776    5.76933054345537
H        -5.59643655858044    5.10654151107307    6.57501674692382
C        -1.56007653105953    3.31648489392331    5.60965965366370
N        -3.77022642201012    4.28788710822529    6.12423091479762
O        -1.30468970424812    3.41703506528148    6.83986668586943
O        -0.83659730712702    2.86632649430890    4.73663759757514
Ir       -2.90536363892225    4.15647262274998    8.10836080414804

