55
CSD_code = KUWHIT | q = 0 | S = 0 | Stoichiometry = C15H33MoN3O3 | MND = 6
Mo        7.65747255599793    2.74536889943002    7.61981783469174
O         7.46278774737397    3.23744065596642    9.19999123905374
O         7.33271429644712    3.98817553422427    6.55816532889857
O         6.72087273737931    1.40807984838332    7.28593436934230
N         9.30467510542258    2.25333027111037    5.71170700013089
N         9.23856596315709    0.82317534336626    8.25665852415098
N         9.99766510529590    3.64129868287823    8.18551096179939
C        10.03844630130293    0.99940324070204    5.87540684571555
C         9.45769632373941    0.12101661699210    6.99098247647360
C        10.49200244240451    1.26716050565141    8.86430456240666
C        10.46308298266420    2.75145509663840    9.25071242818005
C        10.91230769874762    3.66036697561712    7.04503751726698
C        10.19343542612884    3.41660511245708    5.71195130144868
C         8.46572411077578    2.27954313912732    4.48266131874683
C         8.42777275485095   -0.03806029139415    9.15992178115586
C         9.74835126129899    4.99427255909715    8.75334010927923
C         9.27835647505798    2.34170731663227    3.18059198593520
C         7.48790535687120    1.11135067719975    4.42295659238642
C         9.04159746589002   -1.42388741272248    9.40912160774292
C         8.12970769974718    0.63879930299851   10.49313745821708
C        10.96499341953177    5.59696299820966    9.47179230260149
C         9.23062692532430    5.97566230255997    7.70777259370677
H        10.01350939461025    0.40454524516963    4.95545986300156
H        11.09465457052373    1.20879671120859    6.07435552766446
H        10.14207102786747   -0.73335566632698    7.12247048549520
H         8.48251957361801   -0.24910291175057    6.66833281821718
H        10.70868688544763    0.70359583262551    9.77875062069059
H        11.32624374957881    1.07337458770339    8.18203622774801
H        11.47975590247423    3.02223999259249    9.58026681128850
H         9.77146182446734    2.87860294524321   10.08589957861300
H        11.41902589283363    4.62839419834447    6.96170413927369
H        11.70133867592279    2.91460156628009    7.18750588030495
H        10.97023184804866    3.32476099808923    4.93495399762293
H         9.56885233252757    4.28455286603827    5.49136446037171
H         7.86609593364096    3.19188955625065    4.57501239937786
H         7.46934713393730   -0.15825127585177    8.64279046942313
H         8.94047146280282    4.84663484523163    9.47857870920959
H         9.79079089919128    3.29244268068986    3.06038420290121
H         8.59588564167649    2.23004488516451    2.34273143595735
H        10.01211267489060    1.53933149834145    3.11910661814130
H         6.94454156284754    1.05108570772921    5.36757245652624
H         7.98164267592776    0.16425199763274    4.21084457047091
H         6.76602852103006    1.29752903816988    3.63207132513758
H         9.03283278044431   -2.04449417096035    8.51709481252034
H         8.45020503494317   -1.93131157260873   10.16609570381264
H        10.06407228529387   -1.35669606641135    9.77783271273393
H         7.73237089498602    1.63803360077916   10.30615498780291
H         9.00588777617340    0.69568948105124   11.13729760336219
H         7.36677620239133    0.06681345672749   11.01471813675378
H        11.20496564971424    5.06695394140322   10.38966966813176
H        10.73371533391854    6.62438456742966    9.73854497207418
H        11.84867497251134    5.61100433536489    8.83547655551833
H         8.39330587058106    5.52178573832338    7.17470325028788
H        10.00349796342825    6.28270362932118    7.00472832655680
H         8.86386689634006    6.86564038588046    8.21251453367696

