55
CSD_code = KUWHEP | q = 0 | S = 0 | Stoichiometry = C15H33MoN3O3 | MND = 6
Mo        2.22301896192473    2.22299342881479    2.22301698434609
O         0.78468392500863    1.97819192132050    3.02818615453894
N         4.67889328318847    2.95844345987690    2.38926372169078
C         4.85355878114672    4.40427497996867    2.51834054025504
C         5.17901478621938    2.23559112019568    3.55998773985119
C         5.31480304176808    2.40326484487305    1.16352446055771
C         6.85035582803152    2.42521016206719    1.19956476284483
C         4.82061071197707    3.08670648601523   -0.10656223895855
H         7.23925525972000    3.42081269395212    1.40832588430888
H         7.22258028737993    2.12309482350114    0.22463530125741
H         7.25457651083767    1.73238492610968    1.93282367067209
H         5.21199895552762    4.09692013419157   -0.21629090080952
H         3.72932459202391    3.10227181415952   -0.10324764057184
H         5.14473242539769    2.50665085209360   -0.96658730197837
H         5.60771286681339    4.77519198445436    1.81511303841853
H         5.22478123045037    4.64675322425108    3.51953639350301
H         5.09117833192204    1.17215461075330    3.32887200232691
H         6.23728191494606    2.47576621876698    3.75490007979502
H         4.97208396775393    1.36353758996821    1.11914697542527
O         3.02798238333635    0.78455321899786    1.97798163529315
O         1.97811221021797    3.02822728832511    0.78473610693565
N         2.38927148340906    4.67888857532730    2.95843539975182
N         2.95844137232908    2.38927395188432    4.67889730375149
C         3.55998813432611    5.17901480528722    2.23557584126727
C         4.40426813073825    2.51835619301649    4.85355648320921
C         2.51835895336425    4.85355907494159    4.40425916776607
C         1.16352093472150    5.31478375429984    2.40326100966368
C         2.23558861071277    3.56000101681594    5.17901978887958
C         2.40326195661364    1.16353023771322    5.31479792643721
H         3.32886991014832    5.09116598213702    1.17213998574658
H         3.75490210981744    6.23727939374994    2.47576321151546
H         4.77518535288900    1.81513294951440    5.60771497028279
H         4.64674629563204    3.51955520685752    5.22476824081933
H         1.81514146788706    5.60772463908402    4.77517198015033
H         3.51956100150720    5.22476958468328    4.64673268537263
C         1.19953667134782    6.85033696512403    2.42521443883505
C        -0.10655367076828    4.82056989475331    3.08670922553750
H         1.11914765971696    4.97206282853102    1.36353373308039
H         1.17215278115618    3.32888686102426    5.09118399482322
H         2.47577034938964    3.75491912712726    6.23728467607559
C         2.42520206571824    1.19955476689019    6.85034985985229
C         3.08671377230886   -0.10654851712547    4.82059950544558
H         1.36353697060972    1.11915165181002    4.97206992420028
H         1.40818339492382    7.23922375796577    3.42084743510841
H         0.22463342586004    7.22254729404123    2.12299051242066
H         1.93287317106560    7.25456847465469    1.73247640716343
H        -0.21623255356517    5.21188820668153    4.09695517681694
H        -0.10326437557375    3.72928085568922    3.10220629486280
H        -0.96658777509028    5.14476069644057    2.50670624670497
H         3.42081967149401    1.40825319502675    7.23924841782728
H         2.12302599612667    0.22463689178634    7.22255956310775
H         1.73242017584044    1.93285374515732    7.25457434816048
H         4.09694022904707   -0.21625068081694    5.21196260193948
H         3.10225389918127   -0.10324791073737    3.72931374442035
H         2.50668217152377   -0.96657925199209    5.14475252930139

