33
CSD_code = KUWPOH | q = 0 | S = 0 | Stoichiometry = C15H15O2Rh | MND = 7
Rh        0.81120456306634    2.20148889815521    6.51559291441249
O        -0.81506983878010   -0.30909741945980    6.73660376211003
O        -1.34379132124783    3.42533128093134    4.82599211350283
C         2.67168221684109    1.68105787151071    7.51705486383300
C         3.01246918348005    2.42874371962941    6.36159289180821
C         2.38948032191276    3.69754515639575    6.47189183174604
C         1.95252015916329    3.86418824027971    7.85412794386466
C         1.51254183016848    4.98913255109410    8.56859420660847
C         1.31004736898728    4.84747172148057    9.93512354089768
C         1.45392663186647    3.59594730486215   10.57649106474542
C         1.85022180390516    2.46315787546388    9.87675786380610
C         2.12898685837602    2.60495634227689    8.50788668765165
C         1.29345052165554    6.29065824972788    7.84969400430883
C         0.92311106202637    6.03995317569303   10.76392295274040
C         1.17281817512340    3.51447062007104   12.05061840684004
C         2.00579450419601    1.12197261654996   10.53716377066728
C        -0.17780192455420    0.64254517908993    6.68443191351785
C        -0.50918890880801    2.98957320070516    5.48033580149925
H         3.11274740442906    0.72366343005434    7.76064990635641
H         3.63256632869823    2.09079957202654    5.54283012494288
H         2.58423939496076    4.52155946521592    5.79851084161771
H         2.08185147048441    7.00555085132115    8.08819698965768
H         0.33669638547157    6.72894740933780    8.12683831204325
H         1.29091185804878    6.13417777640393    6.77461810398950
H         1.48432011065026    6.05943106177431   11.69529240164105
H        -0.13828872669471    6.00348696028399   11.01254601629960
H         1.11597166999618    6.96818051554925   10.23729215801009
H         0.23147987962274    4.00646281924693   12.28712501797457
H         1.11170383062413    2.48693811471047   12.39033300280004
H         1.96204239127289    4.01006381914490   12.61730568858216
H         1.05948318396406    0.78879640816203   10.96242694158892
H         2.74501360164498    1.16567464991879   11.33623663051940
H         2.32615800944498    0.37537056237948    9.81692132941895

