66
CSD_code = KUWPOI | q = 1 | S = 0 | Stoichiometry = C28H33N2OPRe(1+) | MND = 8
Re        5.73873085447597    5.30580588643244    4.03798652250852
P         6.36069799285176    3.28446550976111    5.19013118754624
N         8.46147791090606    6.45414170664060    2.76097666825446
H         7.92144513922759    7.27229564815147    3.06280234981320
C         7.49387995237694    5.31292721084228    2.65369901147485
H         8.10844779856655    4.40732604280721    2.65769689136347
H         7.04658032803240    5.38572128800457    1.65761815534585
O         7.05153620697959    7.22956162179617    5.81195672501807
N         6.53429865931528    6.42223319348646    5.11478896531245
C         9.46678611442855    6.21262614600194    3.83043338796568
H        10.27819951320094    5.61783323374963    3.41310714265557
H         8.97265274507854    5.62374860468547    4.60703524145197
C         9.98730665415097    7.50739699725500    4.42833879516109
H        10.71490714877164    7.27237894433363    5.19888536541015
H         9.17784289353078    8.06139921902251    4.89725799608302
H        10.47727448667272    8.13768771806490    3.69117387762992
C         9.08340611354505    6.82233522807820    1.45530910585425
H         9.78738770153042    7.63615523704678    1.63664068749135
H         8.28840852273077    7.19870919042790    0.80831405584335
C         9.79650759313823    5.67549190062548    0.75786131966035
H        10.21295680046875    6.04757016776547   -0.17412265323294
H         9.11477588959632    4.86519428307370    0.51948591901480
H        10.61646940586367    5.28181257171026    1.35091532136975
C         3.39108980096137    5.70539928377374    4.31150664227152
H         2.88756306241345    6.06993003947815    5.19207564352553
C         3.57832631484656    4.35283843963571    3.96204084924570
H         3.22947399798188    3.50262001987053    4.52955692060339
C         4.16815976566549    4.29945906614917    2.67100991602974
H         4.26254268507055    3.40975297603761    2.06420490703159
C         4.31391573338503    5.62832662582304    2.21451291042567
H         4.59994119233785    5.92954222876828    1.21729022443843
C         3.85979414377352    6.50253968880335    3.23768876202000
H         3.75392531074098    7.57252944424973    3.15291702474634
C         5.81707005322820    1.82626041800097    4.26084893799137
C         4.77777735738785    1.01344482129298    4.69948502930158
H         4.29884509446854    1.20803056762974    5.64892560981918
C         4.35523547658563   -0.04750737242368    3.91652499000311
H         3.54869772818499   -0.67696282994406    4.26054496264826
C         4.95754989467681   -0.29765117572509    2.69478126695209
H         4.62268840525827   -1.12409777406119    2.08726456380022
C         5.98429410511965    0.52007620860426    2.24658121732077
H         6.44795110248480    0.33113961756179    1.28990382823059
C         6.40778239314251    1.58292145682357    3.02129982680870
H         7.19387314328202    2.23958495453706    2.67228698725817
C         5.65679070969556    3.12240016124585    6.85494295205022
C         5.89852318384417    1.95559539000972    7.57870039217351
H         6.48193434347735    1.15964593005493    7.13528035275412
C         5.39393782823548    1.82551268882196    8.85825496837559
H         5.57544740049016    0.92038096460278    9.41746701024573
C         4.66008136998732    2.85736388561224    9.42507713118928
H         4.26751753179386    2.75107090267015   10.42454238701027
C         4.43818612334084    4.02574733363954    8.71545006904568
H         3.87865008047720    4.83282995451019    9.16306926811585
C         4.93752364405145    4.16120215703335    7.43169111571127
H         4.78167653961343    5.07634074315277    6.87482308007648
C         8.11943786979139    3.00504451066903    5.57429107504908
C         8.84820612798146    1.88789781873786    5.18932071698787
H         8.38962366756306    1.11453043502975    4.59070536345514
C        10.16912562817942    1.75943880101544    5.58828787183224
H        10.73355871113381    0.88883921716897    5.29077594008825
C        10.76120117843413    2.73394736763490    6.37336426465341
H        11.78784935702349    2.62302437489580    6.68616519806105
C        10.03178684162860    3.84577133134333    6.76934376961528
H        10.48689486076227    4.59821478086841    7.39464418639973
C         8.71605480455119    3.98275476532167    6.37096964258029
H         8.12511901137003    4.83425223142950    6.68569018514265

