32
CSD_code = KUWTAX | q = 0 | S = 0 | Stoichiometry = C14H15MnO2 | MND = 9
Mn        9.21243026619329    2.12399605342067    2.78541537388365
C         9.98437647980948    1.13178753285206    1.54511031231590
C         9.98193545824307    1.09215928380944    3.99424963304140
C         7.51861632890421    2.85569252549882    3.95311358394099
C         7.68801776745972    3.71314406376664    2.84768905324492
C         7.52916419795886    2.95551777900058    1.66902983423340
C         7.23126034732315    1.62472543394810    2.04454826732203
C         7.22641900392728    1.56194370638866    3.45906428073174
C        10.73145529608017    3.56424152849095    2.11234635465712
C        10.74468901394046    3.51853063583537    3.52149876896758
C        12.20848656838626    3.08931592001233    3.56638474143935
C        12.19430150366925    3.14274607006328    2.01164720375350
C        13.11110238032614    4.30287463879052    1.62052494452136
C        13.13588179141078    5.20576672904124    2.85386581612378
C        13.13542578461778    4.21777600737302    4.02002647695711
O        10.47451741511598    0.48330279033267    0.72610811292834
O        10.47028101425118    0.41864222168035    4.79367037105151
H         7.45309234468318    3.16278124321797    4.98784642061119
H         7.80728459982583    4.78852209609060    2.89510372394396
H         7.47190230665271    3.35262731774939    0.66484235969135
H         6.91606493671467    0.83366308988893    1.37688766606587
H         6.90450764248019    0.71570139221543    4.05166936092960
H        10.27081816366391    4.29200814498158    1.44581797199095
H        10.29852649140196    4.20102741568796    4.24290457197934
H        12.43623272265446    2.13827458151224    4.04619592068450
H        12.41600768486055    2.22853375176002    1.46263248839861
H        14.11227105070936    3.91961792242230    1.42108504095606
H        12.75651161244182    4.81958804854349    0.72953149956224
H        12.23644989784100    5.82105965223002    2.88464420078545
H        14.00258486646297    5.86449876537565    2.86800984371957
H        14.13979805251543    3.82106035295879    4.17049262573420
H        12.80058700947487    4.66967330506108    4.95284317583337

