39
CSD_code = KUWTEC | q = 0 | S = 0 | Stoichiometry = C12H14Cl2N6S4Zn | MND = 4
C         9.06567144738809    5.59870073117502    8.42547727417161
C         9.59196146594422    8.50427606560684    6.60575328824801
C         8.98771019559341    9.35526607475459    5.62028729701546
C         9.58606889233824   10.49525772986074    5.14512839607951
C         7.71128548236881    9.14443719334854    5.01901063627028
C         7.38933184571999   10.10800871185321    4.12844104571804
C        14.76396925860283    5.66236693642939   11.99521652737186
C        14.50762319528468    8.50827265547840   13.96480817964165
C        15.29098401624595    9.43448203011578   14.73201395289574
C        14.75524154111542   10.52051877921796   15.37701008494193
C        16.70172073312877    9.35254746491274   14.92762165764531
C        17.17979919728948   10.35466167661435   15.69738187701046
N         7.88903900803984    5.23922834464899    7.90359385316855
N         9.63941126911682    6.70885612323254    7.95979403701104
N         9.00292603576173    7.44822964222914    7.01894181874019
N        16.08162438568467    5.46222171611818   12.08729862486603
N        14.24352758585409    6.69851045897156   12.65599465130728
N        15.05423858664324    7.52619816165815   13.35699861081889
S         9.75903309323020    4.62154563832947    9.61734668403525
S         8.62453779086795   11.30446483214588    3.98939197325982
S        13.82958503991856    4.58921870414996   11.08555992742880
S        15.93426986099594   11.43244000362364   16.20991066523781
Cl       11.17394731979871    6.97209510336949   12.56764482138598
Cl       12.32045309322219    7.56553809695726    9.16596916532936
Zn       11.70498860126453    5.92054772669484   10.63104892856535
H         7.42186188457447    4.41743296831601    8.24110525378127
H         7.48674417669278    5.83092593446240    7.19300349297395
H        10.57082485526773    8.79897140700947    6.98925470595838
H        10.56607137107408    7.02382146805457    8.31204294554747
H        10.54157947271466   10.89501767732582    5.42125494517140
H        16.50894771112023    4.70747379924501   11.58199299939660
H        16.62122611378349    6.10919617660890   12.64163672655313
H         7.08663267610640    8.30590074858770    5.26198617952846
H        13.21676429632336    6.85687870539026   12.67127347702867
H         6.50090166827393   10.20232553917460    3.53635531247770
H        13.42961622130417    8.67716986859135   13.92320803967477
H        13.72804005169789   10.82601838781824   15.40018425901068
H        17.30121820534035    8.56954810504844   14.50377320774941
H        18.18952235433857   10.53802861282238   16.00588447694482

