58
CSD_code = KUXKEV | q = 0 | S = 0 | Stoichiometry = C22H28I2N4OPd | MND = 4
I         6.55141375960507   10.58491411179335    4.88782638288652
I         7.09115273264902   13.89212758380269    0.84766262827704
Pd        6.81378223851177   12.17857954990463    2.82213760415285
O         4.03784828183452   15.22269489043066    5.50486126735840
H         4.47427297775777   15.90855527921344    6.02084192978356
N         3.87381602437786   11.90124884435554    2.61972347579936
N         2.70249317430464   12.40939579260715    2.92026580473616
N         2.95302035937747   13.50864845137847    3.57629638026613
N         8.81675760699514   11.77152514697969    2.77870613323459
C         4.28252518898127   13.71492321208478    3.70889236569109
C         4.90860651851642   12.65024726214201    3.05020803218828
C         9.61471305364617   12.75957658347288    3.17954088476368
H         9.15056203720312   13.72369903992013    3.38065893678286
C        10.97987019149804   12.60156258607864    3.33402754250823
H        11.58152231216339   13.43263693098872    3.66627875048276
C        11.54773076708452   11.36937202516927    3.05226745567456
H        12.61077702929036   11.21344562972713    3.15530150391516
C        10.71505505177094   10.34113778911494    2.64255682093265
H        11.10464603325143    9.36030309859649    2.42049006514697
C         9.35756085761599   10.58348734375767    2.52917041120295
H         8.68098427986952    9.78773236004184    2.24022319100471
C         6.17296294680024   10.04809916789238    0.92459913296217
H         6.39124835956859    9.43774572632572    1.80054728707878
C         7.06560067308343   10.09880471340142   -0.13989256142038
H         8.02109609616643    9.59623824969570   -0.07430040602768
C         6.73320281948850   10.78518208501646   -1.29557307693112
H         7.43778700387444   10.83866204413674   -2.11157083793817
C         5.50210065243598   11.40913056455006   -1.40266425022299
H         5.24726869789184   11.95249399526505   -2.29926963716422
C         4.60064284458879   11.34838077216511   -0.35505279268484
H         3.64087686431028   11.83909664996803   -0.43621839487098
C         4.92675921069625   10.66865781741906    0.81237492388529
C         3.94259034640764   10.62009958625901    1.95438241394802
H         2.93189584403375   10.39659549432975    1.60464088180300
H         4.24445410098799    9.86565091455523    2.69236637758300
C         4.98055082923217   16.07461365399667    3.41782602702411
H         5.49676688980637   15.73205326703190    2.52071084377353
H         3.96976130941480   16.37381024971539    3.13013308479332
C         5.73234460741615   17.26787949014682    4.00081584622484
H         5.80191517732228   18.04458621136222    3.23782174856392
H         5.18138365563069   17.68803662367912    4.84803078041380
C         7.12922118934789   16.84943338737095    4.44703675286831
H         7.66770157169653   17.70879488018410    4.85070599500547
H         7.68192132617450   16.48229252273743    3.57923370211928
C         7.03488535350233   15.74854034076250    5.49884971872445
H         8.03389036545914   15.44007444366178    5.81471264657738
H         6.52514368975351   16.13129047325421    6.38921992906701
C         6.29606424856409   14.53608148109995    4.93871751631900
H         6.18846127846629   13.76911205178059    5.71309482735580
H         6.89263983273466   14.12199155124881    4.10320114821988
C         4.89193199448832   14.89908522988193    4.41627823509795
C         1.82452292019946   14.25519937897765    4.07536395143586
H         1.03688034888581   14.17221842143548    3.32275728253768
H         2.11796585679911   15.29578612401898    4.20144091315020
C         1.35279611035860   13.67490989167039    5.40372684324552
H         0.47845855584070   14.21833732305279    5.74880128648729
H         2.14157775443942   13.76940247194042    6.14474698112396
H         1.09391819787926   12.62561923845454    5.28576731307959

