71
CSD_code = KUXLUM | q = 0 | S = 0 | Stoichiometry = C34H30I2N3PPd | MND = 4
Pd        2.60390762754113    1.66752069802701   12.18342416842052
I         5.07077683535950    1.27253147915517   11.37848814918923
I         1.67083545193503   -0.58775798678643   11.27940986342705
P         0.79412620803085    1.82780087242817   13.52466795694346
N         3.97882463638565    4.21526436248121   13.36974901104921
N         3.92243724959990    5.51490105007632   13.15330518375796
N         3.01094322133136    5.68373538586704   12.22804853270675
C        -0.78828811971903    1.02250601269946   13.14414200009093
C        -1.34315367432420    1.30194632249761   11.89689233136572
H        -0.80995589878766    1.94874937036546   11.20966374269783
C        -2.54165053902040    0.72701545111915   11.52523429957510
H        -2.96400486170646    0.94257219567823   10.55501478158383
C        -3.18709202739658   -0.14088290873262   12.39189420297775
H        -4.11925484949800   -0.60044338782093   12.09935485791733
C        -2.62661712465962   -0.43644984598735   13.62233729432956
H        -3.11900666035963   -1.12907761346260   14.28887223098799
C        -1.42701998282305    0.13962840123989   14.00372247133781
H        -0.98590977377816   -0.11400638024923   14.95701911890473
C         1.37099354146741    1.06160184746699   15.06874486526109
C         0.69784839888174    1.24788165938871   16.27455566627279
H        -0.17268456941654    1.89046746842579   16.30915101422507
C         1.14925325989777    0.61892922921730   17.41908393165759
H         0.62437592476551    0.76458578179762   18.35214219155349
C         2.26589911114694   -0.20196911566940   17.37017714529771
H         2.60695706027494   -0.70106489628342   18.26523157568401
C         2.94735849707246   -0.37956354977340   16.17779103549628
H         3.82126802130454   -1.01334362474967   16.13996437451607
C         2.50807097642788    0.25681491247519   15.02933863342485
H         3.06159804833156    0.11558868425638   14.09177595217257
C         0.26671368159153    3.48634166525509   14.07130218709546
C        -0.86776575539354    4.11033717227380   13.56415858138686
H        -1.53538290062839    3.56906794496699   12.90863405981717
C        -1.14881683670729    5.42222133946627   13.90437001753338
H        -2.03585140268388    5.89699032072698   13.51032787335814
C        -0.29814812290857    6.12655588099127   14.74023225123806
H        -0.51654106473307    7.15324373461250   14.99571712517729
C         0.82928772050290    5.50711397407709   15.25736011742350
H         1.49384133559336    6.04153965362624   15.92050739682053
C         1.10861369763011    4.19619785802065   14.92516700075928
H         1.98032426423540    3.70798238298182   15.34202197786112
C         3.11691254088182    3.52043652047048   12.60804911248680
C         2.48547128539176    4.50124674621066   11.83720481858525
C         4.91605943123809    3.67746567380842   14.32641774898639
H         5.88859287340291    4.14234549280730   14.13765841925157
H         4.98942995724801    2.59972332018031   14.14225215735109
C         4.47555781374134    3.94098496289384   15.74444249664095
C         4.22221726385381    2.88391665156088   16.60674773649881
H         4.36438815146039    1.86844764665757   16.26816413264802
C         3.78446041720181    3.12614146480068   17.89741868691503
H         3.58415883104195    2.29559709210680   18.55721966963043
C         3.60049631283225    4.42608488244335   18.33480889398167
H         3.25470067503733    4.61552420157261   19.33992476649225
C         3.86643124358665    5.48509133734163   17.48201919389127
H         3.73522990872063    6.50116360197755   17.82494514179345
C         4.30369131163469    5.24556687624336   16.19162477484759
H         4.50557105670009    6.06701816196238   15.51938951281211
C         2.71899420307448    7.00290928840032   11.74874205482137
H         3.60777074496827    7.61885371858468   11.87637670215368
H         1.89910830136959    7.44112154679729   12.32177279327829
H         2.44220077308048    6.95508018022194   10.69644176568688
C         1.46446318670242    4.24257588590811   10.83039315648811
C         0.30593727984459    5.00903692479188   10.73057464143106
H         0.16827708624829    5.86494932146381   11.37506377512452
C        -0.68927565991389    4.65094195060781    9.83844545344531
H        -1.58655281207217    5.24857163026335    9.77478688875477
C        -0.54398176743549    3.52612337261774    9.04280415522376
H        -1.33002649699253    3.24243172736226    8.35941022833194
C         0.61597926513798    2.76973481051050    9.11489764098953
H         0.73954060842129    1.90100432265107    8.48490226492806
C         1.62175011080531    3.11497276800105   10.00528408579593
H         2.57743549799472    2.58116411656137    9.94712195944237

