88
CSD_code = KUXMOH | q = 0 | S = 0 | Stoichiometry = C44H37MnN2O4 | MND = 6
C         7.62651023451091    1.60644779635140   18.34712131410998
C         8.70919887685417    0.72961931323845   18.59015619851729
H         9.15679631603512    0.75692505701803   19.57230985045902
C         9.21305411317451   -0.06946945099044   17.59695095436469
H        10.06886493133529   -0.69818898191095   17.79651878870969
C         8.64088333235570   -0.06827090241927   16.32206817147604
H         9.05766937699861   -0.68693978063055   15.54186940342681
C         7.54560251308386    0.72049233617360   16.06807785923014
H         7.10007839145129    0.72005129397483   15.08291111747804
C         7.00440531497977    1.55719176029923   17.05661515916870
C         5.77039394969658    2.27099881537515   16.85075237474692
C         4.92517257143208    1.81405187918823   15.71820600891799
C         4.43759600910996    0.51193216980682   15.66506646870185
H         4.65546806068667   -0.16840640595269   16.47546962605263
C         3.67682697230437    0.09814936344905   14.58638698283596
H         3.29538917715768   -0.91179200222014   14.55492653426257
C         3.40829326014700    0.97382689664194   13.54710814902873
H         2.81883902222316    0.64709714040324   12.70346080434026
C         3.89981179057661    2.26838650592245   13.58973569948304
H         3.69789331276112    2.95158994525100   12.77817005465423
C         4.65077372538238    2.69124992080421   14.67138706771964
H         5.03961960784698    3.69935541384473   14.70946577600230
C         4.00530251540955    3.63736445822107   17.65061449071294
H         3.42628244708135    3.07202868812394   16.91030203136384
H         3.93443923970784    4.70325340399891   17.40959128531826
C         3.38163707629158    3.39682194490807   19.04400922157993
C         3.97199855305402    4.35779623969129   20.09254188401327
H         3.90189141133524    5.37955298973249   19.70040814737935
H         3.35242616711092    4.29450583694903   20.99370724782706
C         3.59915431750132    1.94536915804521   19.47680364381216
H         3.21749824473540    1.26206035279066   18.72033067614529
H         3.07688409307406    1.75284603236152   20.41128300694273
H         4.66161470180227    1.75142341541494   19.62326757969302
C         1.88075865070049    3.68559228352117   18.93730062218377
H         1.70701025414924    4.71247511700635   18.62470831538286
H         1.39404419810501    3.53187012551755   19.89753297557418
H         1.41744696388402    3.02232055065194   18.21060615856090
C         5.70405177247401    4.14341417587909   21.67218368375450
C         7.07514054792295    4.16766761111055   22.14606060013790
C         8.14412154046452    4.56711379533238   21.28690687789470
C         9.42323599837817    4.74041990435019   21.86670826550499
H        10.21669730182624    5.07305801074618   21.21371112435319
C         9.65956758549170    4.46813733706928   23.19072985063334
H        10.65310777502227    4.59289092344539   23.59739756397653
C         8.62536534036959    4.02206142447964   24.00916695443929
H         8.81332410357035    3.79067237370295   25.04664792819932
C         7.35725585821416    3.88917327652983   23.49001339928005
H         6.55910123302595    3.55360935205934   24.13653330969525
C         4.68270272725818    4.19361122625330   22.76128495496406
C         4.40295008748752    5.39594296965626   23.40116041418512
H         4.91262418761516    6.29404105560828   23.08544982079763
C         3.48056777532918    5.43730510674065   24.43168212534700
H         3.26674079742803    6.37498595756690   24.92295337653578
C         2.83641718424046    4.28006901342947   24.83663550858593
H         2.11988366457793    4.31352748394484   25.64381679644280
C         3.11757609641884    3.07817008175384   24.20818268617279
H         2.62270508810668    2.17228594175487   24.52663419083515
C         4.03592885624652    3.03257133235177   23.17438156374617
H         4.26785293924408    2.09680416285197   22.68718741103424
C         6.07879134972837    6.34283943447714   17.20331108274488
C         5.15529431669506    7.35426009418883   16.85409418412533
H         4.40670220217764    7.61783933068128   17.58802039152296
C         5.19230374332874    7.97592713641470   15.63014267962614
H         4.46664448079799    8.74061969356110   15.39294613215845
C         6.14992410503621    7.61018095510430   14.68713026730337
H         6.15763706010457    8.07682373152324   13.71367340614927
C         7.08577678642993    6.65226142754635   15.00287701675245
H         7.81761270321939    6.35767328079984   14.26483758186331
C         7.09724590718319    6.02023548258843   16.25409530696830
C         8.09825849857183    5.02253118584487   16.59187169502817
C         9.34913358645677    4.93345340599943   15.80098307252297
C         9.87566545769619    3.67309191371902   15.52121797666681
H         9.33777202991369    2.79600960806095   15.84958352229856
C        11.06460972820466    3.55159485769178   14.82814312545525
H        11.45867285201983    2.57030885748442   14.60758541657585
C        11.75294602052917    4.68411661611453   14.42335631408362
H        12.68431286179383    4.58928456096175   13.88452579125022
C        11.25057429706823    5.94025751046617   14.72368082911319
H        11.79609701299250    6.82462268163324   14.42769321873277
C        10.05637623351559    6.06893817566091   15.40834269227708
H         9.68207740899461    7.04891565546068   15.66544887527764
N         5.39395812631956    3.23470912867793   17.64465513578430
N         5.37270875987207    4.14624296003516   20.42187979798688
O         7.96618643438035    4.21381430329521   17.53258827502385
O         7.18702239726511    2.37752960736957   19.28020592339300
O         8.01033605299868    4.77435971634093   20.02286087417503
O         5.94262113911171    5.76352732779631   18.36041586821887
Mn        6.66029029283882    4.12352016333079   18.90996349023207

