97
CSD_code = KUXQUR | q = 0 | S = 0 | Stoichiometry = C44H41CuFIN5O3P | MND = 4
Cu        0.13315210545528    9.10898613591423    4.89308884697393
I        -2.32725046732196    9.02523703662820    5.19539378320432
P         1.50198436128597    8.06721272064428    6.39073232004357
C         1.76115024722264    8.62722229692320    8.15292332326021
H         2.05984566993727    7.76589266719800    8.78007646111782
H         2.56775299125263    9.36741215269182    8.17126805021721
N         0.54541633852849    9.25821572637775    8.61352826212501
C        -0.55107284658839    8.30796404337101    8.69053509299757
H        -0.33077507745807    7.49881251671088    9.40730927893449
H        -0.69124577286409    7.86875659649737    7.69903349088898
C        -1.83298812712195    9.02314368504316    9.08918406191669
H        -2.07974932028021    9.76218274583323    8.31571327414673
H        -2.64737063855448    8.30671127933681    9.13796274316041
N        -1.64680438293357    9.69961835105553   10.35786396232971
C        -0.56989202134818   10.65590683808470   10.28792538911047
H        -0.41368104391359   11.11296920288589   11.26607340817949
H        -0.78213911281303   11.43977215038731    9.54700718070283
C         0.71535101019710    9.92224066890308    9.89259225058452
H         1.53181030867603   10.64581916350917    9.81044935103376
H         0.97022673410682    9.19848195854829   10.68713180123445
C        -2.65372648315314    9.82022069657957   11.27621138807586
C        -3.44624803642674    8.70934967142870   11.65191020507704
F        -3.20472809160683    7.49945934171952   11.09650098133570
C        -4.42385551944352    8.79707470504779   12.59968185768241
H        -5.00783282264660    7.93062997203241   12.86837524437430
C        -4.67378850529547   10.00475819824344   13.26347597405064
C        -3.88999034622986   11.12504222952631   12.93268197691099
C        -2.90981283605811   11.01640891878660   11.94776576461746
H        -2.34919218912915   11.89220596313619   11.67296275373564
C        -5.72489565261279   10.06627934299399   14.26962126146817
C        -5.90992536999146   11.37813701343960   14.85253945701652
C        -5.11971275143650   12.41990248037347   14.47503837139230
H        -5.29701029871936   13.39021209438277   14.91829371146999
N        -4.12089238531644   12.32667568641933   13.58020826930020
C        -6.96354018364486   11.63561312165563   15.88239324176018
C        -3.33455629175689   13.48692520660206   13.27545685886825
H        -3.61395535550005   13.95505810716505   12.33614091954052
C        -2.87476404849478   14.37421047519506   14.39191044569181
H        -3.13375865400562   14.10016451917395   15.40247054527627
H        -2.86470750172494   15.43873524287729   14.21808053781151
C        -1.88479302335814   13.51399518002388   13.67094632404794
H        -1.17823305786179   13.97709057058260   12.99908282359795
H        -1.49541196799421   12.65329858546828   14.19303170012017
O        -7.11053721877760   12.72996400152032   16.37352310900625
O        -7.70713423300935   10.59470148758546   16.21617011710307
H        -7.41102489982995    9.79094747887888   15.69759445053814
O        -6.40296250976524    9.07874270955878   14.58658798814253
C         1.29599086171890    6.27100003665235    6.63869491596946
C         0.10380803680286    5.67600283827576    6.24136921981502
H        -0.67139772934873    6.28025274306954    5.79020348898880
C        -0.09348771045885    4.31930196999834    6.43101590913110
H        -1.02292041530744    3.86436877750012    6.12363224369147
C         0.89953668502987    3.55245555254178    7.01656137635660
H         0.74835441321142    2.49377667429374    7.16587161530503
C         2.09056188880973    4.14159064616675    7.41368742838529
H         2.86504578357817    3.54202555475737    7.86986931265992
C         2.29159433151210    5.49621637208104    7.22818266514935
H         3.22472750977869    5.95530207653244    7.52937620931455
C         3.18181938911793    8.14883317989076    5.69922547376376
C         3.61815847865433    7.15328093580629    4.82501455544110
H         3.02679371963076    6.25623308827411    4.69870795133308
C         4.79659772055544    7.30401905212510    4.12089163584818
H         5.12407108757796    6.52172174338541    3.45152383694130
C         5.55199616973404    8.45682313205713    4.26348117602550
H         6.47118190066961    8.57524551829850    3.70976497487359
C         5.11718038855534    9.46166906634532    5.11091258914395
H         5.69442123969488   10.36906256620865    5.21615230585823
C         3.93513776621432    9.31614866860430    5.81213089033266
H         3.59316622793148   10.12302689258092    6.44775762996370
N         1.21754977202636    8.67532710077768    3.20820137772336
N         1.19174296496485   10.85182646294302    4.78378221224665
C         1.20922782169965    7.57964175537172    2.47112538133818
C         2.17248941714259    7.36954925672676    1.47255611018416
H         2.13659391465058    6.46202101383133    0.88957110459125
C         3.13964559916552    8.31688316835116    1.24105036335825
H         3.88622111552575    8.17489489032749    0.47294463276473
C         3.15084230090676    9.49111358180759    2.01048965510608
C         4.10243406742758   10.53436421988762    1.84032201910944
H         4.85554361748646   10.41495893527096    1.07494904789348
C         4.06692315450313   11.64731521034685    2.61268439735064
H         4.79025766301139   12.43874086519803    2.47833979649663
C         3.08311508147761   11.80280235290046    3.62757885405439
C         3.00645526213028   12.91855349544471    4.47590935241548
H         3.71291196898667   13.72791133827834    4.35786350645154
C         2.03419167917339   12.96519707775599    5.44741416266903
H         1.95694771504133   13.81529474149849    6.10822377138948
C         1.12954625077180   11.90192099935556    5.58363229800483
C         2.15322054471120    9.61896920960944    2.99796439633018
C         2.12780522797191   10.78339160070965    3.82452230143751
C         0.14603259927802    6.56875063974328    2.73775779409520
H         0.49958031668018    5.84216892337501    3.47119121936278
H        -0.11945439173559    6.03482102348789    1.82891826562096
H        -0.73687621614605    7.05537733090546    3.14585974473508
C         0.06929741448793   11.89164733259956    6.62784130007808
H        -0.91129441572084   11.86978263733425    6.15317872745219
H         0.13841709111470   12.76684898318890    7.26883365675467
H         0.15506399792657   10.98030783061828    7.22661853648289

