75
CSD_code = KUXSUR | q = 0 | S = 0 | Stoichiometry = C36H32ClO2P3Pd | MND = 4
Pd        7.31584425458757    2.16009477343118    3.82294328045480
Cl        7.49049107976069    2.70610920132180    1.58445802044733
P         7.00478077107461    1.51110894434458    5.95296204743194
O         5.64371074503896    1.22702995922206    6.49938036452958
P         9.55462096840661    2.02239941864888    3.97228946641714
P         5.13000310164201    2.42575281346732    3.49584276608833
O         4.10700974487969    2.37771315935172    4.70271544265986
C         7.91891516561775    2.56908826405702    7.12920234507895
C         7.86407666792063    2.26991126472329    8.48432708265890
C         8.50882139012671    3.08529749047389    9.39630851557711
C         9.19589643192234    4.20718013463553    8.95833335396250
C         9.22951480525343    4.52228860618610    7.60941236807954
C         8.58647664546404    3.70518999138576    6.69680216511265
C         7.96924587868784   -0.04429907340874    5.82087809007285
C         9.01333289538316   -0.44514999309400    6.63918133517205
C         9.69028493216684   -1.62200861981282    6.35988923931351
C         9.32491047140196   -2.39810509904600    5.27386861300755
C         8.27856007961766   -2.00219165185544    4.45434293921025
C         7.61157268406466   -0.82197622926664    4.72120904474481
C        10.39997646369111    3.43307887370479    3.20574106299635
C         9.67654652572519    4.61266440511173    3.05328444388571
C        10.27787827844072    5.72456873685859    2.49398749435143
C        11.59955650567697    5.66074365520007    2.08367567160371
C        12.31997126948060    4.48560541530756    2.23006598083001
C        11.72554930965554    3.37024091646930    2.79095570217209
C        10.24942554846721    0.53124320187566    3.22317073686283
C        11.37490655482898   -0.08895511522175    3.75612022952615
C        11.85392777517663   -1.25323760460096    3.18476607502929
C        11.21208787898777   -1.80461184730335    2.08774336981402
C        10.08570528428641   -1.19396629654095    1.56043597788809
C         9.59942363808624   -0.03138785239648    2.12867940972945
C         5.04869971863909    4.16636149924435    2.97514501814270
C         5.80877103557168    5.01765303631507    3.77657047732623
C         5.91325737002539    6.35831182978512    3.46013217678219
C         5.26840849243935    6.84863286657153    2.33398004410205
C         4.52359719263772    6.00111995403378    1.53220267161768
C         4.41398990438200    4.65589005369999    1.84585124163925
C         4.35099548712704    1.38796841619807    2.22966304169881
C         5.09827105224711    0.39737170680810    1.60741918849020
C         4.50146169708189   -0.42771748012246    0.67130813322811
C         3.15972367228528   -0.26723512243643    0.36607134925338
C         2.40771137291056    0.70705478719937    1.00485413681795
C         2.99870865064941    1.53295933405840    1.94299292067823
H        10.26280504763330    1.96059796412278    5.17885931124354
H         4.51924356986365    1.92230568655897    5.48922662508300
H         7.30370397757344    1.40280739560577    8.80470802208005
H         8.47364108032601    2.85134225461587   10.45053067989959
H         9.69733723812747    4.84421795154877    9.67226108543039
H         9.75177010287524    5.40588200038722    7.27135840671307
H         8.59230350944927    3.95401882862342    5.63380882402599
H         9.29589151892659    0.16026432847478    7.49006205724143
H        10.50794272184250   -1.93309622128741    6.99444106020908
H         9.85700022512805   -3.31384235299281    5.06219640454663
H         7.99543580245324   -2.61007786920519    3.60732446477787
H         6.77623819204346   -0.49457324526281    4.09080364706056
H         8.62622825083733    4.64520809914671    3.34463364601219
H         9.71292075032154    6.63640062378510    2.36750749555326
H        12.06851463754157    6.52629335988921    1.63923049788055
H        13.34760615396994    4.43769109637744    1.90024974396595
H        12.27922006731131    2.44718951245827    2.89656069914811
H        11.86410004910157    0.33726822433168    4.62239165537027
H        12.72805522511806   -1.73454237431329    3.59880195199292
H        11.58906498258240   -2.71570301238597    1.64651803367346
H         9.58446717536690   -1.62807674797368    0.70774608592461
H         8.71989245084653    0.45882025755493    1.72405382882398
H         6.30660703305505    4.60916636863324    4.66446077251792
H         6.50180639523889    7.02012021909882    4.07978654580700
H         5.35621953792756    7.89418730609455    2.07702857423688
H         4.03354523121639    6.38590674861140    0.64973840200069
H         3.85502369027359    3.98749863391026    1.20693675621128
H         6.15270871650461    0.28984053612223    1.85360841822842
H         5.07990027136142   -1.19632496352460    0.17984092865272
H         2.69420517480229   -0.90875597731219   -0.36792456298288
H         1.35896953787369    0.81969945522985    0.77096815898437
H         2.42351229064472    2.28367518861223    2.46711874514717

