45
CSD_code = KUXWEF | q = 0 | S = 0 | Stoichiometry = C12H22F3NO4P2W | MND = 6
W         2.72574168869895    2.30873340137925    4.11058776329962
P         3.76859544693551    0.43256672489718    2.92720709793879
P         1.50546227885023    4.30036185372614    4.84396622625259
F        -0.95031442245413    2.46942293062938    1.12454737773140
F         0.37870905430502    1.39268143188388   -0.19017699163345
F         0.04584318337219    3.50036685216898   -0.47785474077433
O         3.84088193748057    3.58445368952842    2.82724428960345
O         1.25969931738218    2.24799867821081    2.54200163477762
O         1.09225432188053    0.42380205518965    5.98627764763394
O         4.61705485163806    2.26411676674840    6.38597742023880
N         3.89213923522810    2.31369850045908    5.44825998756545
C         1.64484176940522    1.11491585153818    5.24714946239471
C         4.57405911407085    4.85945118949142    0.96341468070589
C         0.21367125490031    2.56040770583465    0.46788745126943
C         3.57842596563428    3.96277553139006    1.66880130532236
C         2.40823972879333    3.62059398243275    0.93993408505371
C         1.38691301199187    2.82859250991703    1.42548494811053
C        -0.31421723268416    4.11686800996249    4.84831417315838
C         1.71467661992337    5.87532629162824    3.92436564432129
C         1.84350411392743    4.82491900050973    6.55996956768699
C         4.81013811722931   -0.62187663292682    3.99420711857769
C         4.89652976018072    0.75961989902935    1.51626059294785
C         2.61633391882375   -0.78637555819650    2.19670376771731
H         2.31215616365292    4.01775543791649   -0.05825669534916
H         5.41377059156167    5.06259545426068    1.62359528459686
H         4.93696803826881    4.37818674660837    0.05721609325553
H         4.10202976957698    5.79786990070143    0.67930160776475
H         3.16233731814311   -1.60814147711514    1.73318709396185
H         1.97225596556032   -1.16941961851928    2.98737713658594
H         1.99126553974362   -0.29844391929240    1.44956691481770
H         1.23216823182003    5.68261661418345    6.83969293327170
H         1.63457857258683    3.98655359123419    7.22289144388882
H         2.89919121627659    5.07687357185505    6.64939738229577
H         5.33754205300170   -0.16984389711360    1.15605585561022
H         4.33945026911878    1.23247589929893    0.70760918623881
H         5.68452365733961    1.43673953339736    1.84442702490063
H         5.22604197297912   -1.46142889339328    3.43753263136147
H         5.61508588232423   -0.01579238876777    4.40765971077096
H         4.19957699113947   -0.98769630032667    4.81856608380665
H         1.13581620905206    6.67157621967234    4.39262290627738
H         2.77039247268250    6.14462195418695    3.92005636289074
H         1.38144271188025    5.74276534726281    2.89503385778381
H        -0.80299814030194    5.04137568034407    5.15579219739878
H        -0.65133209275938    3.83595831867841    3.85088456766241
H        -0.57644642915213    3.31348155950226    5.53555991030653

