105
CSD_code = KUXWUX | q = 0 | S = 0 | Stoichiometry = C52H47IN2O2Ru | MND = 5
C        13.40773428561239   12.18888436775952    4.76651559823091
Ru       10.17484758393871   13.61665855693929    3.65264008707087
I         7.83194257003600   13.60425738079833    4.85260915910418
C        10.35281089211600   11.63711395417321    3.60427513421618
O         9.93369326034455   15.89440821638851    3.69253482078636
C         9.57826781468207   10.70904105275854    1.42955155926468
O        12.18830729885033   13.85575425693239    3.59656055601481
N        10.12576530943819   10.65090180869122    2.74177143233828
C        10.40331812321542    9.32114882415966    3.31118581977449
H         9.48297602427223    8.72504097888951    3.29441663992185
C        10.32547763479198    8.02280232539050    6.62141440868196
H        11.35167374083085    7.68890770058201    6.55684313435195
C        12.12680723397042   13.13650673698314    8.17049419849629
H        12.49335657270026   13.64032673081037    9.05259336552288
C         9.87645680068177    9.02889786945833    5.77796841346672
C        10.36119933473301   12.00834043214352    7.00401333221820
H         9.35555543567398   11.61791648702624    6.98227001980220
C        10.80641987723146    9.64615584820849    4.76533971124922
H        11.83372157767621    9.32180534873244    4.97751089368407
C        10.82653164635998   12.66013299697045    8.13114471451384
H        10.17106309688810   12.79046982526699    8.97844420116213
C         8.55506221859082    9.45152935934845    5.86736105244009
H         8.19571527387950   10.24185374785414    5.22536950654958
C        10.39985302083767   11.00781110129197    0.33837310239562
C         9.86014838981549   10.95570472629782   -0.93692382514981
H        10.49336017083653   11.18419677247853   -1.78253807078766
C        12.95844218761705   12.96687808972087    7.07976029516912
H        13.97490181025983   13.33376341490604    7.10211685992531
C        12.50655711564483   12.32689533973996    5.92887520718545
C        11.09315219357607    7.55295960138061    1.67598004546706
H        10.05557282859920    7.25763379117040    1.61075145816773
C         9.35978626991299   15.29647063439130    1.50264669431439
C         7.69854016542835    8.87948667949206    6.78970030558388
H         6.67805713793235    9.22531597768952    6.85425026666204
C         9.47897269789376   16.32752949525665    2.47444369127174
C         8.15237351953940    7.87386232951400    7.62678278639547
H         7.48421857758148    7.42623097539991    8.34716298831012
C         7.29625850274497   10.22296227515618    2.39885266362145
H         6.26366513140757   10.32408038876342    2.07630224361790
H         7.48740292587580   10.97192032834533    3.16411343422997
H         7.41302463204829    9.23408059103281    2.84278373028561
C        11.45788333600048    8.59788777694096    2.51444947967752
C         8.03277754921077   18.51653934875243    4.23658295093627
H         7.52574787316894   17.56845790508119    4.34930517072841
C        11.81658440653699   11.44360233365365    0.53558507501012
H        12.45137047804021   10.60688135323757    0.81994984589382
H        11.86197985599247   12.19030442856122    1.32747979546954
H        12.21069102808999   11.87783625410397   -0.37952205396990
C         9.07552692266846   17.62735904281600    2.16932812404741
C        10.75186782450802   16.73009958128415    4.51524062423305
H        10.22168146571462   17.66377782479482    4.73621806729616
N        10.74051328873431   11.10456154112512    4.76941708995303
C        11.18782460018180   11.85438044811423    5.89361741648289
C        13.16169506161434   12.98144694805356    3.61933485692869
C        14.07508630739343   12.89186802877821    2.55520963863888
H        13.90988672841850   13.51593929155207    1.68849330556774
C         8.52936892210856   10.62704176865356   -1.15402780099881
C        13.74730207679502    8.31340457951993    1.82805306285151
H        14.77999207014802    8.62319095518394    1.88784945231464
C        12.04673735547374    6.89091502561514    0.92316473069994
H        11.74997699967409    6.07998878166119    0.27491671209636
C         8.22332143586485   10.42703715627791    1.24080611226020
C         9.61817472767171   13.95047172428077    1.87415624264330
H         9.43412373748882   13.21391163105555    1.08865264518179
C         9.46604572024517    7.44581867605255    7.54004929088124
H         9.82521538730607    6.66294467773610    8.19153436214898
C         7.72332346306346   10.38583239239466   -0.05373097334439
H         6.67516618329813   10.16817669068779   -0.20100612819919
C         8.90989223482747   18.70311260196511    3.16861346864047
C        13.37687525306237    7.26651958022861    1.00124640169112
H        14.12188166297848    6.74786103148540    0.41659033568305
C         8.94655402193692   15.63564875788498    0.20402613136581
H         8.86234611850749   14.84923327462205   -0.53196784936383
C         8.70274064940520   17.92027583709216    0.85671147934307
H         8.40974506960382   18.93333670629535    0.62350158821166
C         8.65766563710329   16.94147196917095   -0.12160277219683
H         8.36208599969755   17.20013047791312   -1.12727762433072
C         9.32559134516929   20.94709757138347    3.93013922000522
H         9.82975791087713   21.89490920566014    3.80920943677722
C        12.79316430077137    8.97977577623424    2.57631214029278
H        13.09604951771686    9.80990748698425    3.19741608927046
C         9.54478385416727   19.93097874181245    3.01704075944053
H        10.22089366959972   20.08151000201108    2.18709711776824
C        15.16044812785849   12.04496611747423    2.61928351268617
H        15.84308966918380   11.99209618744827    1.78307898359978
C        14.51683072817210   11.36091228859791    4.81950272148503
H        14.68872504828088   10.77509823757530    5.71335238233492
C        15.38747202764996   11.27094171116441    3.74706333782147
H        16.24087574695933   10.61131266872737    3.79725911672035
C         7.81207603828507   19.53685326648626    5.14272415631157
H         7.13079963662906   19.38254365245753    5.96632669788568
C        10.96097217796331   15.95992924394489    5.81386229516695
H        11.42988588568890   14.99383799108499    5.60226336587184
H        10.00788117775667   15.79707855350175    6.31614616810360
H        11.61455458877595   16.51499787831041    6.48110465419111
C         8.46019146735421   20.75248149705944    4.99341851567807
H         8.28791384891908   21.54817777918426    5.70301637631915
C         7.97297681259212   10.58804012964683   -2.54452776570993
H         7.05370309148576   10.00908249693474   -2.57992817360586
H         8.69249514375118   10.15401704531466   -3.23550725993696
H         7.75019457978464   11.59961661799921   -2.88502817153048
C        12.06689453934930   17.03395243651402    3.80390289197929
H        12.55725821413888   16.09886290833142    3.53303875159430
H        12.72118752271979   17.60718754340127    4.45511287804287
H        11.88289099178443   17.60863124388809    2.89750991143039

