40
CSD_code = KUXYUX | q = -1 | S = 0 | Stoichiometry = C18H7F10N4Pd(1-) | MND = 4
Pd        5.82128687353343    5.82148371236563    0.00030383042330
F         3.91853313786186    4.36529697335926   -2.31888613297140
F         1.17126477878701    4.37900431248552   -2.47629065724744
F        -0.28310409414644    5.72672616565967   -0.60580821052839
F         0.97625746310467    7.05125970651629    1.42211853238051
F         3.75871498357267    7.01777333397072    1.53741058169780
N         5.87320696913304    7.80084569057311   -0.68513292096258
N         6.96460684836158    8.55158956853411   -0.54488865925387
C         4.95119506097458    8.53256449153708   -1.31345996182854
C         5.46740158276100    9.79618893739593   -1.58498669481948
C         6.75480216085854    9.75635523818448   -1.07547179075176
C         3.88141997539691    5.71520315689493   -0.39642883090662
C         3.19550169721031    5.04096175041358   -1.39592176240002
C         1.80865363739784    5.03395168793906   -1.48412465946854
C         1.06349658484349    5.71760317963450   -0.53056329671651
C         1.70896231444223    6.39289408164126    0.50235781728083
C         3.09318769272017    6.36911375715112    0.54658785098105
H         7.90857503584430    7.90857901757869    0.00002799287977
H         3.97581727395370    8.14507235200029   -1.54863185742550
H         4.97798326292147   10.61308865812124   -2.07706442498951
H         7.51743512404226   10.51139641177652   -1.06316122031437
N         7.80088741843476    5.87317755735959    0.68507795583865
C         5.71516397438086    3.88145936304711    0.39647652913952
N         8.55162502266995    6.96458163081261    0.54483740142518
C         8.53260929618086    4.95116281699468    1.31339193871677
C         5.04093652161750    3.19548451189150    1.39593979986496
C         6.36910416692736    3.09324706661585   -0.54655919387230
C         9.75639062017875    6.75477940416241    1.07542080304585
C         9.79622522136829    5.46737867636162    1.58493705212631
H         8.14509451745256    3.97580826830201    1.54862234553886
F         4.36525619686447    3.91846073208285    2.31893523077562
C         5.03394972470635    1.80863594788074    1.48410776071072
F         7.01776027580747    3.75878262153604   -1.53738348586370
C         6.39289674429265    1.70901650863935   -0.50236821329700
H        10.51142222200728    7.51742209223857    1.06313313077084
H        10.61311444076744    4.97797079127121    2.07704208744959
F         4.37902477452643    1.17121851820842    2.47626857370258
C         5.71760540749286    1.06351130071848    0.53052790830631
F         7.05128218156102    0.97634001099770   -1.42213912388693
F         5.72675290918568   -0.28309000286125    0.60574597444553

