23
CSD_code = KUYFUG | q = -1 | S = 0 | Stoichiometry = C10H8Br2NOZn(1-) | MND = 4
Br        9.15276744801679    2.98656693264547    3.28950267786264
Br       10.20883334642026    7.04724681428464    3.56650043740306
Zn        8.70249738336227    5.23365322944820    3.97828925763154
O         6.81242046178832    5.72931190287564    3.96364292570021
N         8.42713578514423    5.16999441296517    6.06910375652329
C         7.14430867432451    5.49899195808724    6.29959059820504
C         6.32613691442038    5.78812152661133    5.14873547175970
C         4.99368524546626    6.13173159147727    5.40062068127778
H         4.36036375364850    6.35397862052343    4.55440163478150
C         4.48708209072407    6.19000508725165    6.69138382672090
H         3.44797978926610    6.46201585719267    6.82931940583650
C         5.26436316706071    5.91355088019462    7.79224309050580
H         4.85843051031743    5.96210131339164    8.79291931801549
C         6.61033521561232    5.56247508776138    7.61250655571198
C         7.49779997643900    5.26005159177075    8.66580923948630
H         7.13482653437481    5.29448035071745    9.68513885482755
C         8.79673223086399    4.92946437672464    8.39463839881956
H         9.49056016831816    4.69523143616338    9.18911192594922
C         9.24497209417855    4.89169066656291    7.06134603397072
C        10.65553581915939    4.54000455042611    6.71719972431137
H        11.12829443005786    5.37010989882961    6.19112513550598
H        10.67402853911176    3.67574865095152    6.05280931219351
H        11.23171042192369    4.31307326314294    7.61076173700060

