85
CSD_code = KUYNUN | q = 0 | S = 0 | Stoichiometry = C37H34MoN7O3P3 | MND = 6
Mo        2.24857067330027    1.27821596228852    5.09100435636896
C         3.29290211015915   -0.04573005843770    6.00574497775431
O         3.95787219814505   -0.81938815364027    6.53612340471898
C         3.14637585118839    0.72161898569224    3.48016984222005
O         3.69144817567048    0.38645587424964    2.52417670467555
C         3.65937846140588    2.53893064838380    5.47830546623915
O         4.50510735434282    3.27673255137825    5.71591344566600
P        -0.44053040483924    2.35829036037101    4.84678144278528
N         0.90239417865196    2.82469224883339    4.13237940245697
P         0.85928484785845    3.50992240011053    2.65533326982842
N        -0.51681237031150    4.30027636657634    2.35123334310286
P        -1.89405364104267    3.92755144673627    3.10410744667094
N        -1.82728455717557    3.07319039236558    4.50471487336135
N        -0.09153474318566    2.49708992079113    6.48898417214352
N         1.11700746439268    1.94812830420197    6.75042191743206
C         1.33296700013862    2.07729394984524    8.03896761592832
C         0.22805304878186    2.72437362191268    8.63566518310997
C        -0.66473766035268    2.98237179130170    7.62829119131418
C         2.57606368285278    1.59247556215306    8.68450415606107
C        -1.99028864482394    3.64581789371682    7.62771134110467
N        -0.59894269113176    0.66487362981189    4.73203678211161
N         0.60348912831132    0.05027609845777    4.71591138683490
C         0.39231075973750   -1.22379426640188    4.47881469366761
C        -0.99539724499217   -1.44868747483746    4.34409268040961
C        -1.60720543003476   -0.23312019292530    4.50650572247949
C         1.49997417184620   -2.20440275761285    4.38799397536021
C        -3.03865699730845    0.15218582797769    4.49636533754935
C         2.21885414475371    4.67619991047955    2.59939115806328
C         1.97442456351782    6.03427162613419    2.44637165034349
C         3.03524530575946    6.92175125503946    2.46386551123193
C         4.32770301801290    6.45271914381765    2.64020293021179
C         4.56765844476519    5.09572410580611    2.79470867381094
C         3.51458618717343    4.20025942089679    2.77163113990846
C         1.15324946467767    2.18772586279083    1.44724557389412
C         0.32488367138034    1.07473706497104    1.52989808517998
C         0.51124262044119    0.00258129644677    0.68113914323678
C         1.52330045914836    0.05022479250367   -0.26530051333053
C         2.32648481929471    1.17314810133283   -0.37419375322889
C         2.14536879040085    2.24732106886916    0.47953008949142
C        -2.73643267387834    5.47460996855545    3.48059979036687
C        -3.55436787171719    5.59712453094771    4.59453960118150
C        -4.20060343359295    6.79547065046944    4.83995997139677
C        -4.03305911236184    7.86289052520306    3.97246530509514
C        -3.22085736515607    7.73628192467586    2.85599396325899
C        -2.57377700312947    6.54052074482289    2.60568963957734
C        -3.00673858082031    3.04543452590890    1.97437603995483
C        -4.29984128630819    2.76627060402016    2.40165894597487
C        -5.16167485078457    2.07402954853048    1.57152870824537
C        -4.73279684776483    1.66348658204551    0.31790199362314
C        -3.44660885047982    1.95005337633685   -0.10982118858018
C        -2.58135375485660    2.64560328385470    0.71661667078304
H         0.11377409110794    2.96867746356860    9.67282858799991
H         3.44276115816294    1.96914397016181    8.14257253215277
H         2.61811696044672    0.50428107105899    8.65049518466673
H         2.61899847515586    1.91969308995423    9.71967617835778
H        -2.73568400490767    3.00810706883018    7.15251485402287
H        -1.94234429237008    4.58261235357445    7.07091450200773
H        -2.29762084560870    3.85647952261059    8.64903452290980
H        -1.47712864990044   -2.38763857702689    4.15666490482962
H         1.13716282369415   -3.15275796456250    4.00058540345265
H         1.94000834751424   -2.36615496342140    5.37152226614851
H         2.28430526628670   -1.81555562591514    3.73969364790309
H        -3.26571983757342    0.79297744964178    5.34785325669976
H        -3.65757540482011   -0.74054930669840    4.54421652279853
H        -3.28937156250900    0.70229712082739    3.58761783218245
H         0.95667578833480    6.37496080535933    2.31985236183961
H         2.85494520764867    7.98045714619853    2.34608317814382
H         5.15285849205550    7.14956950329201    2.66035112374909
H         5.57411490281658    4.73411504772991    2.94052456627139
H         3.68278950531319    3.13895501251115    2.89629004469115
H        -0.48249938799204    1.06807111843609    2.25784837376504
H        -0.12339725882371   -0.86811903913155    0.76101286355199
H         1.68414696470999   -0.79232766187774   -0.92119908218253
H         3.10751437061589    1.20754152142812   -1.11891605193385
H         2.77510274875117    3.12276493987777    0.40766835400530
H        -3.66812168773557    4.75601627668246    5.26262195371570
H        -4.83473433280481    6.89897391846705    5.70850392049409
H        -4.53711049810371    8.79795443164902    4.16767935760336
H        -3.09421279036441    8.57143160262352    2.18284056079407
H        -1.93291053261355    6.41579635150979    1.74470682394603
H        -4.61285154238904    3.09429633671825    3.38359243247001
H        -6.16694574416756    1.85262839074755    1.89897678698126
H        -5.40666764542308    1.12083102100589   -0.32841712624039
H        -3.11686650735019    1.63239226088211   -1.08799935713726
H        -1.57595715720192    2.88399749553917    0.39693545829960

