63
CSD_code = KUYNID | q = 0 | S = 0 | Stoichiometry = C34H20N6O2Zn | MND = 6
Zn        1.92131268412719    4.13559773877610    2.17708651542255
N         2.76101869017141    5.73110272575608    1.32268056012363
N         1.06628845747926    4.87270048679049    3.99086484900579
O         2.39289726366441    2.61877287897367    0.59653488690746
N         4.00172863337090    6.02307550509803    1.57493471465104
N         3.92358237441629    4.09112558859629    2.91818409280817
O         0.19727130720247    4.89253831352188    0.96197291610640
N         0.42748164172182    2.60928580339152    4.09895795415792
N         1.04791699514190    2.52213691690581    2.96069675860761
C         0.62963375351544    5.88579692098402    0.36986904502381
C         6.58218461025594    4.47169939772732    3.59069463098919
H         7.61931463430514    4.61213464473630    3.85888809982350
C         1.84199280006274    0.24546376403728    0.34476856903565
C         3.15698650801607    8.45255043313411   -0.60848248517524
H         4.12729444393611    8.35045837355798   -0.14853268445595
C         0.89057592836666    7.75366815915008   -0.96416101138387
C         1.11749628794931   -0.60159961928538    1.21256220570717
C         4.54326517918356    3.24573257043493    3.72582228986778
H         3.94657207605484    2.42004620030299    4.09306867502815
C         1.98813068096289    6.40096491143423    0.51552721340126
C        -0.05443406536093    6.77432073083901   -0.58559600018854
C         0.67198192539084    0.07072860355804    2.37748742771054
C         0.44113601609186    3.86264094311620    4.62467671095629
C        -0.22901039405370    5.33536334257462    6.39376560228388
H        -0.73237620828186    5.52559128515831    7.33063823490857
C         1.05065173165493    6.08220682173459    4.52742477674058
H         1.57005058278875    6.85241610785606    3.97094804586578
C         1.14261866685972    1.43670256731392    2.24622442812909
C        -1.31513791910220    6.82265858536180   -1.12775230400199
H        -2.06710548982589    6.09346912428869   -0.86737002500780
C         5.86685979735064    3.38530109515033    4.09383642384545
H         6.32983665799967    2.66873292893182    4.75276259477338
C         4.60094387108626    5.14222539210530    2.41903833376063
C         5.95117716924680    5.35687266590467    2.75153238511096
H         6.45329270223330    6.21278604300476    2.33124719233377
C         1.87244561418917    1.57020642405248    0.98860478742537
C         2.14282606436439    7.57211053284716   -0.32659166435281
C        -0.22004205683137    4.07506110923958    5.84838742380889
H        -0.70615907467297    3.23744124390146    6.32105557947628
C        -0.05004301512902   -0.63461166750391    3.30718260900925
H        -0.41117556099098   -0.16243917241951    4.20724295690524
C         0.42054844646317    6.37059118684234    5.72183797166027
H         0.43323957778881    7.37266499559870    6.11894435522079
C         2.33438321669119   -0.26986215522771   -0.82895495778217
H         2.89203096398212    0.34235620068299   -1.52119190533173
C         1.68797183520078    9.67237246913730   -2.13642094862098
H         1.53979601260496   10.48821038642583   -2.82898668239538
C         0.62053914918922    8.78234902232050   -1.86969572635046
C        -0.68550208272994    8.80345179910608   -2.40716892561788
H        -0.95618915568786    9.57569977303999   -3.11333771482002
C        -1.60855239134181    7.85216267186815   -2.04015452466403
H        -2.60051889326640    7.89096172702842   -2.46731517318763
C         1.38597046404514   -2.44740504180964   -0.26702147270321
H         1.22405568504451   -3.48354484247288   -0.52876623500021
C         0.11871430500239   -2.64675180959140    1.92755661251030
H        -0.10879917052051   -3.69232675375165    1.77855258281533
C         2.90233236394260    9.49677329578393   -1.51963222192739
H         3.70482630898903   10.18701194217936   -1.73892472340686
C        -0.31341632768128   -1.99604960478437    3.05706762924442
H        -0.88346302246207   -2.54685994702239    3.79202978967779
C         0.86507804802882   -1.94967956368705    0.94789155741506
C         2.09266516292318   -1.62588140674009   -1.11398976632469
H         2.47950753887288   -2.03218076596067   -2.03770283556856

