97
CSD_code = KUYRAY | q = 0 | S = 0 | Stoichiometry = C46H44ClN3P2Pt | MND = 4
Pt        6.88401131044624    8.65155826362001   16.06543348988173
Cl        5.41886587980742    7.83607715098574   17.62902852189269
P         8.28813823862084    9.28897024491043   14.44346519163225
P         7.41679784863725    6.35078859255632   15.73973630065382
N         7.95463816784594    6.18782587924634   18.42352697135438
N         9.34290170893476    7.38939088922584   17.00816874216939
N        10.69458242292295    8.62720379162547   15.54785548716969
C         7.54486828742211    8.98247441623467   12.81388085381129
C         6.31638839388305    9.60873951425680   12.60315145982690
H         5.92774844364155   10.26107228132274   13.37599397462410
C         5.60749137469315    9.38867599140300   11.43898872547927
H         4.65727579014126    9.87728854094822   11.28248318390278
C         6.11345240840800    8.52797534758237   10.47655120159971
H         5.55819903848696    8.34519002696847    9.56854743467740
C         7.32749386585600    7.89634558782708   10.68381139420916
H         7.71866227080654    7.22064073035013    9.93689249032030
C         8.04569630500339    8.11904593877575   11.84726275281078
H         8.98637222745608    7.60994072113221   11.99628552464510
C         8.98243692014830   10.96430904983872   14.31855969661550
C         9.19453773341910   11.61530487816739   13.10961454121588
H         8.89887987769474   11.14115518068531   12.18361800955969
C         9.77581338468277   12.87127882870207   13.09932970854855
H         9.93632716923801   13.38098031982286   12.16041135133496
C        10.14998323145798   13.47609038583326   14.28830513054079
H        10.60084571384334   14.45739072003894   14.27383435769470
C         9.93880854028671   12.82839279455498   15.49585548362340
H        10.22430001159819   13.30526235759641   16.42210703970385
C         9.35253511801441   11.57700826841409   15.51235584917984
H         9.16151075361209   11.05925674148013   16.44398820413008
C         9.86683998931203    8.29957514525383   14.42367495117443
H         9.58956289175025    7.24324775275461   14.44784835914795
H        10.41844131312870    8.50623460499668   13.50167316470816
C        11.86862512744062    9.43167686368055   15.30044286344958
H        11.88489567141105   10.30843279179370   15.95815055513589
H        11.80496082519852    9.81894320153052   14.27841345593469
C        13.15778618037933    8.65183155572426   15.44438160772751
C        14.34111833823540    9.31474678698286   15.74266506497318
H        14.32948151758258   10.38643677398383   15.88576912095605
C        15.52899757172357    8.61546894101591   15.85825022178120
H        16.44217273463758    9.14245303016852   16.09237598317580
C        15.54572693544293    7.24261360994610   15.67965231788128
H        16.47161344624563    6.69515393499445   15.77431746002521
C        14.37017920299338    6.57592406814483   15.38110727027169
H        14.37717821156487    5.50515089839805   15.23936065577027
C        13.18273349322520    7.27595251087122   15.26112615469528
H        12.26900566864546    6.74770299857332   15.03012125187796
C        10.39434780090859    8.20937458574692   16.81931480393749
C        11.19177774911859    8.63385522653214   17.88991171132745
H        12.07345705044029    9.22763549643569   17.73673387929825
C        10.83967432679649    8.26188509711682   19.17225307455309
H        11.44112873381253    8.58523401910520   20.00922543569731
C         9.73590854766330    7.46888500816878   19.38129951829591
H         9.47432418464037    7.15463467471976   20.37573888428363
C         9.00872117856652    7.02886736821601   18.26299750704308
C         7.31582831569915    6.00755539647417   19.70314866672097
H         6.24393646364660    5.87096015997003   19.52431299331554
H         7.40558286136300    6.93149288819776   20.28334241546007
C         7.84111301774889    4.84325086911637   20.50852261240874
C         9.03188596588767    4.20580411036157   20.19034107616484
H         9.61221647237878    4.54065128871408   19.34283808295931
C         9.48943165926247    3.14697528842133   20.95645119466247
H        10.41848098324125    2.66010778072736   20.69679609476912
C         8.76329103385598    2.71432165848984   22.05141022406994
H         9.12119348104274    1.88901392944234   22.64904263820171
C         7.57425863107913    3.34608953819531   22.37741535396793
H         7.00155648953872    3.01396373086277   23.23096323501841
C         7.11698527350985    4.40081807184919   21.60995849916747
H         6.18843021978819    4.89241428870903   21.86309678395619
C         7.42421412466221    5.42103728139107   17.33526082623481
H         6.37532275446354    5.19336836487165   17.54991689322699
H         7.96890504192137    4.46976006878752   17.21715038320547
C         5.89117433677959    5.64196077899941   15.00349911025032
C         4.98073010347087    6.53022216746897   14.44573102217348
H         5.19275213131175    7.59933543511463   14.48719310546165
C         3.81298650684910    6.06850028685602   13.86637942522372
H         3.10849817065873    6.76658035316315   13.43805821678680
C         3.54818559855443    4.70975623118609   13.84239578449283
H         2.63539371585598    4.34370136427395   13.39503364115430
C         4.45247484362081    3.81632409657065   14.39594108928000
H         4.24314283505682    2.75603864644666   14.37812354316501
C         5.62156435842620    4.27748038208025   14.97086797764793
H         6.33148575657489    3.57823971191372   15.39357325161245
C         8.60949218803323    5.34776379703547   14.77294335050025
C         8.35584949202596    5.11922307045452   13.42180301535866
H         7.44904628145098    5.50874005962459   12.97856104646349
C         9.25193076312858    4.40377450009737   12.64990601350052
H         9.03958387075986    4.22874256727514   11.60500606149425
C        10.41814252188760    3.91073477598518   13.21328144180726
H        11.11784262481523    3.35053510241078   12.61074587836761
C        10.68407427868853    4.14223126623479   14.55286508738062
H        11.59378866611126    3.76330570876589   14.99683997327583
C         9.78925792646848    4.85775588039973   15.32770424797360
H        10.01787370159001    5.05663676801127   16.36477436158873
C         6.23649622795333   10.54182628742199   16.57704347814018
H         6.58411181926017   10.77042352800397   17.59058521140078
H         5.14303030521925   10.55308424556156   16.59644426402032
H         6.57313705842581   11.34514789507040   15.91418408200108

