38
CSD_code = KUYSII | q = 0 | S = 0 | Stoichiometry = C12H18MoN2O5 | MND = 6
Mo       -1.71165769487849    1.28289589686986    5.85401124562931
O        -2.70063661555708    0.18784627739749    6.94417531147978
O        -1.69400694092439    2.23669560805905    4.25211274896783
O        -0.55897397283015    0.17497861094774    5.44050684921995
O        -1.25283774192232    2.51928120733964    6.84749817713653
O        -7.27835324725487   -0.61713665516631    9.87881774737516
N        -3.88933258639786    2.35521601475846    5.88460135065892
H        -3.52244722006791    3.26734757968018    5.62471133769906
N        -3.25809514161803    0.19135609525768    4.22217843085268
H        -3.00510650889879   -0.78342551178200    4.35203341288355
C        -3.79506384007817    0.03980553450803    7.67987414331318
C        -4.08909735102769   -1.19562585688458    8.27359261081855
H        -3.37703018131320   -1.99916952071225    8.15389047045242
C        -5.24449776437670   -1.37656317452800    8.99986444639561
H        -5.46775795260275   -2.32459212784609    9.46218996930244
C        -6.15683721438386   -0.33196635328870    9.15393869897976
C        -5.87680505953934    0.89739999366933    8.57005686443576
H        -6.55687285690446    1.72871736864637    8.68115748732290
C        -4.70897257545693    1.09366316731540    7.84410950163339
C        -4.38330606373953    2.44269165874792    7.26027741831012
H        -5.27174680978316    3.09300092435259    7.31674727324910
H        -3.57770768619267    2.89469887629301    7.85175512502760
C        -4.87277602914099    1.90347843063441    4.90524817938471
H        -4.76579032892645    2.49877076095978    3.99330503553001
H        -5.89640148033607    2.03390122419507    5.28292741298619
C        -4.65681977795602    0.41901153036391    4.56151368790382
H        -4.90928506592251   -0.19274851045758    5.43206179348776
H        -5.33043306239536    0.13923886107481    3.73543841099210
C        -2.85043695492685    0.65665859591040    2.89792788202729
H        -3.64923959339200    1.27087527491836    2.47107371966810
H        -2.64925828994158   -0.17461442702844    2.21484712361031
C        -1.58092461991775    1.52873722236870    3.07287129710209
H        -0.69425856721221    0.87114333233912    3.12836232214806
H        -1.47727159248823    2.22218941959978    2.22030217430961
C        -8.20584973604019    0.41268019854577   10.11385752028191
H        -8.98698201926674   -0.02989191484150   10.72994336671473
H        -8.64838237587688    0.77888481247509    9.18100621360920
H        -7.75104748051174    1.24946957530723   10.65381323910059

