34
CSD_code = KUYSAA | q = 0 | S = 0 | Stoichiometry = C11H16MoN2O4 | MND = 6
Mo        2.51015509276050    4.62503985427229   -1.01540218717287
O         3.87712364609734    4.97221914738721    0.18251030776234
O         1.45878506217360    3.28733979910479   -1.78748024325207
O         3.28243575478412    5.17614255815676   -2.36643060231816
O         1.28965541531751    5.56511357978199   -0.42997071600405
N         2.12218730177559    3.15855660352653    0.87293195319849
H         1.23667658122852    2.72477504530316    0.60980634591866
N         3.80633472582527    2.56507445123434   -1.24964907980797
H         4.79270782158241    2.80348528215939   -1.17276856161673
C         4.00250536177025    5.28190957601282    1.46915064307937
C         5.08020534748147    6.07790590222639    1.87803705309103
H         5.74898524541688    6.44624154521456    1.11299867201855
C         5.26625918525952    6.39622279547047    3.20779658686325
H         6.09828759441455    7.01981615291283    3.49883641213735
C         3.10996933458237    4.79744295976160    2.44374370311396
C         1.90075871071740    3.97948661157129    2.06250404440327
H         1.60413325919030    3.35323351920524    2.92091608708802
H         1.07859854739219    4.66462767809764    1.82539985637767
C         4.38951378510193    5.91417521435813    4.16579200822044
H         4.53121242483998    6.15525784970840    5.20790707759018
C         3.32456610419348    5.12196271844755    3.77622417272117
H         2.63476248798385    4.75009914926670    4.52136091080173
C         3.13666165471623    2.12884939925239    1.05711962434207
H         2.80896267447090    1.34503500413244    1.75926233945042
H         4.03437085529097    2.60350056968869    1.47008180552400
C         3.45590657782657    1.50870560771075   -0.30389121653549
H         4.25726140105523    0.76250734511815   -0.20042821205350
H         2.56022925740174    1.00140163646261   -0.67627503118415
C         3.46326445064108    2.26407412563819   -2.63467907795204
H         3.76689813901236    1.24769471904181   -2.92710093796329
H         3.96920580855458    2.99849170871585   -3.26302422267596
C         1.92747611915042    2.45094703236728   -2.78203824403198
H         1.70945461184221    2.88500965890469   -3.77155383806735
H         1.40938966014807    1.47545519978662   -2.71028743306682

