47
CSD_code = KUYWOS | q = 0 | S = 0 | Stoichiometry = C18H22N4PdS2 | MND = 4
Pd        8.82997524706121    1.79109912222562    0.37463276883557
S         6.49447837231657    2.13752363763261    0.13954908444594
S        11.18923481880610    1.76689671719532    0.63332678713613
N         9.71642493099097    1.88950805337020   -1.41343556902750
N         5.64071907139102    1.76411903027152    2.67029949118214
H         5.83622909538152    1.54108240037109    3.63621808488418
N        12.00597421127799    1.66971315941874   -1.93564774700772
H        11.78844763386891    1.61908095092815   -2.92116518817539
N         7.94538722478501    1.73518001618565    2.16577106934848
C         8.01823164181859    1.16475871470779   -2.91398946694651
H         7.60906151945430    0.59574095807089   -2.08112349416472
C         6.68697870127638    1.88245473965458    1.83642594853214
C         7.41764300366092    1.15838590509617   -4.15519859459455
H         6.52424661433739    0.57369863168097   -4.31641518196638
C         9.51191191860521    0.56056499977092    3.51672819603891
H         9.84524974237503    0.07467304701764    2.60145061975805
C         8.47165582692702    1.49077532385288    3.42930463216073
C         8.04532587226225    2.15044957678834    4.58373974753384
H         7.28743319773047    2.91940306769806    4.52222691192181
C         9.17581376407438    1.91745270260156   -2.69410219112259
C         9.70381895055870    2.68102083095745   -3.73713206125781
H        10.55969134596470    3.31901053281923   -3.56427841231009
C         9.09069438740446    2.66675728138151   -4.97691648445331
H         9.50088900737222    3.26482350703677   -5.77798182544814
C         3.67037162518828    3.20060206252132    2.92502604583791
H         2.63625166917587    3.31963194118723    2.61530074522256
H         4.23112178048401    4.07703660499480    2.61018138846178
H         3.70275783951383    3.13540095073055    4.01083434707942
C        10.09582283356239    0.28149928252604    4.73430327556663
H        10.89852537167037   -0.43843635964549    4.79238365646501
C         8.64029300937720    1.86189463763064    5.79866331194603
H         8.31016836715659    2.38093071571554    6.68708706312933
C         9.65637483881481    0.92533680731709    5.88168269821840
H        10.11390547986659    0.70787448160832    6.83499684725653
C        14.17464937184594    2.80671072316844   -2.02399033647036
H        15.21203078014865    2.72569899840203   -1.71289270097661
H        13.75110320338406    3.70987628160332   -1.59203531502566
H        14.14244141260654    2.88876450381416   -3.10868844849474
C        13.39343430912475    1.58383712653542   -1.55298519569781
H        13.82665866323900    0.67281536822284   -1.98008587246374
H        13.42614485443160    1.51166957535108   -0.46369191800268
C         4.26118000070583    1.94453378568915    2.29178770910881
H         3.68898160168677    1.06277219054109    2.59949688130986
H         4.23056449795898    2.02175452887220    1.20278518258575
C         7.95677323915005    1.90286545088807   -5.19407194265461
H         7.48659822288204    1.89815248030500   -6.16582888606023
C        10.97953092698533    1.80430495770065   -1.08004566265206

