41
CSD_code = KUYWAE | q = 0 | S = 0 | Stoichiometry = C12H15CdN5O8 | MND = 8
Cd        0.68142686276339   11.35857482564396    6.88727320238800
O         1.40146842249153   11.09765432554444    9.26913367022920
O         2.89887662790027   11.18572557169323    6.64224609970746
O         1.99388967371122   13.06023371077498    7.08111718290245
O         4.10709242723498   12.84867095296308    7.20190213679239
O        -1.36139935560762   10.59602417397886    7.23298128746164
O        -0.74619671444758   12.48639073670532    7.96641666005156
O        -1.50785373045268   11.02845668173185    9.30785202435720
O        -0.11495388283561   13.14541240212448    5.20625888297036
H        -0.87932911471682   13.31848519955355    5.77099895710144
H         0.57211292160063   13.73274465016208    5.55035841525178
N         0.98943147592802    9.21920072691649    7.48655975821242
N         0.63656253475392   10.29199552717559    5.01562515393210
N         0.51245357471517   10.51679421150605    3.72024202897918
H         0.27115641987939   11.44628223819541    3.40055997269695
N         3.02935252151851   12.36751899651236    6.98473315178969
N        -1.20562309441262   11.35483773880028    8.19091605151018
C         1.40567524863126   12.18505908138857   10.18461214582319
H         2.28199658487614   12.13824767316738   10.83780031156406
H         0.48478631030502   12.19202412512030   10.77387775609818
H         1.44980138477095   13.08527860878186    9.57146796193764
C         1.22314148910599    9.84640801065049    9.76394635572279
C         1.22053432225644    9.52587006740587   11.11560560700448
H         1.33900395271996   10.29379434480682   11.86192237738266
C         1.04940219441117    8.21341933749219   11.52020125242862
H         1.04346746827632    7.98302274355058   12.57455359949750
C         0.87246589743306    7.20306008956989   10.58920888448060
H         0.72151162970933    6.18546333586016   10.91458776234025
C         0.87267184546923    7.50355433651140    9.24259957885665
H         0.69211380746849    6.72321891170302    8.51954025940206
C         1.05293896163848    8.81731923610239    8.80566637249229
C         1.12643492877634    8.45091803128389    6.47587017326743
H         1.38160593194221    7.39166587298415    6.54680308275714
C         0.93871564879455    9.00204201553748    5.15915562580799
C         1.00306431353401    8.39561611022918    3.88822540097582
H         1.22338717366402    7.37139367198833    3.66888620388375
C         0.72161887069819    9.40125546833575    2.98658230918704
C         0.63937167588207    9.39652847465828    1.50554664223287
H         1.39294338663220   10.05783149224975    1.07972819431299
H        -0.33964738872590    9.74120472804733    1.17591069183744
H         0.80322679167338    8.39240156259750    1.12682681440059

