56
CSD_code = KUYZUB | q = 0 | S = 0 | Stoichiometry = C17H31I2NNiO2P2 | MND = 5
Ni        3.32991919284595    0.32387725035686    3.83279043351156
I         4.42398166083894    2.55523300889398    4.00287653954842
I         1.79887428313047    0.17504979881401    1.67812076884633
P         1.68934780923635    0.93795901800791    5.05904451031791
P         4.99270991634117   -0.73540602867371    2.96030544170166
O         0.97702736378702   -0.51327558240955    5.45026142546717
O         4.59425676193099   -2.31636121000739    3.34545778823218
N         2.82079278761954   -1.48858797014945    4.52114894810597
C         1.63543657569089   -1.63171943444026    5.10928216668680
C         1.08639583810408   -2.88514018517929    5.33838133077592
H         0.13071170027827   -2.96645323334528    5.82650296976851
C         1.79430961894293   -3.99202502280436    4.89826157759899
H         1.39537516730504   -4.98112008307855    5.05848100102881
C         2.99362355641972   -3.83471939064376    4.22515682907715
H         3.54927498085960   -4.66717350132370    3.82972670936423
C         3.47017911610238   -2.54330478114354    4.03638862888590
C         0.22828162359524    1.94149094594997    4.51318045312402
H         0.18932256333730    1.79682270852494    3.42642140453231
C        -1.10180689948393    1.46327511532426    5.08496743913598
H        -1.16884501645034    1.61229293193145    6.15854236180041
H        -1.26087491880053    0.40945830738791    4.86771933569909
H        -1.90344509592495    2.02819394042034    4.61255509456142
C         0.49460096588497    3.42129300108147    4.77288116437251
H        -0.27060277200450    4.01627602082633    4.27823447584166
H         1.46093941705789    3.71861765749555    4.36827703714998
H         0.47344538085949    3.65866277887385    5.83419789309308
C         2.18967462201595    1.49916329971723    6.76592920334711
H         2.57348872827915    2.51836026302294    6.64891191024177
C         3.32784995859382    0.59325681287332    7.23179752958784
H         3.78055423891725    0.98481411229222    8.14092530779717
H         4.11204625074327    0.52811587693043    6.47446048523457
H         2.96144699803428   -0.41386055655520    7.44006905539144
C         1.05180899820145    1.48119167089020    7.77816241013831
H         0.53527264204940    0.52230986519315    7.76645724608156
H         0.33138385977937    2.27231789863330    7.59043282011361
H         1.45945816988073    1.63435722162791    8.77702328307385
C         5.25067262393072   -0.94933743656636    1.13905509473733
H         4.28932192452486   -1.34967681388963    0.78811294089760
C         6.33855781577426   -1.96211834176075    0.80421143866291
H         6.29794168304155   -2.18514871466425   -0.26055606926163
H         6.18725342184251   -2.89165607782888    1.35107849833453
H         7.33108850775912   -1.57837817142365    1.02737284041289
C         5.46785115875800    0.40541418365193    0.47348956029382
H         6.42376113839716    0.84364871991238    0.74736813440050
H         4.68116961891822    1.10242897035081    0.75803892014336
H         5.43707861906683    0.29238641413593   -0.60800442198152
C         6.67631675760202   -0.77182539854292    3.75527787187563
H         7.07869653125626   -1.75628522687633    3.48076761464245
C         6.50504978183456   -0.71151054448774    5.27118878585765
H         7.45049076759133   -0.92651327060231    5.76678071063960
H         5.77225219868996   -1.44181728917333    5.62130819673794
H         6.19413319338194    0.28801947474231    5.57426461269616
C         7.61536705644483    0.33100940744167    3.28736211869456
H         7.16520847817916    1.31283470800229    3.41788104264665
H         7.88990834669012    0.21157653122119    2.24304098204554
H         8.52956433232280    0.29910635104966    3.87882814829287

