35
CSD_code = KUZHAO | q = 0 | S = 0 | Stoichiometry = C16H12MoN2O4 | MND = 6
Mo        1.66127730202616    1.84538873541656    3.16632951822682
O        -0.84917294972084    0.67800407815419    1.79673251530259
O         1.47746806203705    4.30981473473792    1.28834530180140
O         1.69263241795809   -0.61275977689007    5.06078364827368
O        -0.19723916236396    3.29579334315223    5.16180698234739
N         3.51697600040674    2.42116725306007    4.03097921705217
N         3.10830428446009    1.06662417318869    1.81103006640329
C         0.07827069186803    1.11427159979290    2.30946981466297
C         1.57521591874100    3.40966408070933    1.98512745067139
C         1.71284921143351    0.28186106112391    4.35075932999759
C         0.48730742111850    2.75391948878320    4.41941375396053
C         4.60141990782070    1.89543364673364    3.43224675221251
C         5.78702914425793    1.64955204903191    4.13766206474966
C         5.88302630433107    2.16027607520013    5.42977713102940
C         4.81279928249754    2.84286207918622    5.98033396202012
C         3.63243500407531    2.90664470162690    5.26024584661707
C         6.89089941626113    0.77378818349837    3.62873091208986
C         4.36121406832954    1.50547833119225    2.03178837375244
C         5.28090451666555    1.66310081226089    0.98672008119819
C         4.93387888460431    1.14239461927934   -0.25774786929832
C         3.70226594160099    0.53614586841827   -0.42984400174113
C         2.80156556562324    0.56737340729830    0.62114913812751
C         6.54165131951685    2.46379431142295    1.10446375401913
H         6.78716065943598    2.00102099738667    5.99838337073815
H         4.87193316258352    3.26728951157820    6.96965802603322
H         2.74051072220215    3.34831669674424    5.68603174944671
H         7.15107913965798    0.05429410006178    4.40423230401823
H         7.78667514475675    1.35247072664433    3.40903642998347
H         6.59125497337735    0.22780898517071    2.73937673064486
H         5.62389311931564    1.23415923291560   -1.08332419934434
H         3.42177086085589    0.10208538834881   -1.37604137600443
H         1.79211519177928    0.19433417307957    0.50416956143757
H         6.58063538348604    3.17429931137588    0.27942671673390
H         6.57805809686977    3.01840334325169    2.03711218017231
H         7.42343499212681    1.82962467706248    1.02883476266805

