71
CSD_code = KUZKEV | q = 0 | S = 0 | Stoichiometry = C20H28N10NiO8S4 | MND = 6
Ni        3.61682064156186    5.28516672863681    3.39583741929307
S         3.51483804623430    7.87038454397898    1.57482232258841
S         6.41209961232848    7.98044065051873    2.44563069134370
O         4.18148349779789    7.07094960586991    0.56900633701440
O         2.53208086250020    8.81578550581219    1.13320768581753
O         8.59084307029662    7.30897538548768    3.15923429556035
O         1.81662442167709    5.55298241520631    5.08376493315728
N         3.00525703302028    6.97601442359059    2.76155334936963
N         4.68777167282726    9.69416700108700    3.25514905698877
N         5.79955985495488    9.90996246780925    3.98288257763693
N         7.96236498450038    9.12186424091006    4.37774102068494
N         2.43780986491682    4.44857053753021    2.09692945082203
C         4.84949374647537    8.75182764623333    2.40447255101347
C         6.83644960247344    9.09835782617594    3.73514308003986
C         8.84484692809006    8.14834065059795    4.01698457013538
C        10.14322654104412    8.19734408650091    4.76699074293752
C         5.81548708392690   10.96951592195694    4.95461653839012
C         2.89339876303241    3.51710778598691    1.26038433722295
C         2.09455794010296    2.92362235168848    0.29678481247706
C         0.77184591776588    3.31648120109178    0.17736991625325
C         0.30675005251507    4.30188931750065    1.03140603546791
C         1.16699668663869    4.83416057408274    1.97648924749566
H         2.31642670483472    7.49546103667287    3.28072231940130
H        10.68243584179784    7.26292402973371    4.64240123156631
H        10.74318639170079    9.01157523072585    4.36491701696872
H         9.95673658546445    8.40286438379106    5.81688006126717
H         3.93431193827303    3.24423134807619    1.35826670717489
H         2.51139852726214    2.17160924734247   -0.35447484364337
H         0.12493966688150    2.87186388543833   -0.56344239214707
H        -0.71009145903557    4.65515981568320    0.97743739019292
H         0.81990490520589    5.60250963417420    2.65146767551397
H         5.86479011471124   11.93758322502781    4.45347829138316
H         4.90195786677299   10.92361169505818    5.54542004975320
H         6.69303671478988   10.83377169447612    5.58220857545855
H         2.24557810361782    4.89219419411529    5.66921763565523
H         0.95469409934434    5.18276952358648    4.87179617527163
O         5.41628187288408    5.01770437220988    1.70748644925502
N         4.22810272606567    3.59405112624993    4.02973371133998
N         4.79582434461803    6.12095602225101    4.69564146269099
H         4.98839834525738    5.67969889158790    1.12259068812568
H         6.27861086176493    5.38669399594535    1.92002498481391
S         3.72213971628078    2.70251239920271    5.22008057866648
H         4.91837447465810    3.07516235147764    3.51196279036306
C         4.33964974620808    7.05064514050841    5.53382105439409
C         6.06608831591511    5.73387000763001    4.81732865778130
O         3.05567320314086    3.50364090155156    6.22465289933153
O         4.70697255049657    1.75988813660444    5.66305447082582
C         2.38789626754408    1.81711758533862    4.39412276118036
C         5.13716395310287    7.64041706887653    6.50079865831277
H         3.29931191741940    7.32518137487597    5.43446748879885
C         6.92496025537404    6.26236279483143    5.76575459498431
H         6.41393276172377    4.96740818238284    4.14059426565563
S         0.82476996207764    2.58749309234490    4.35132759562251
N         2.54989513173404    0.87260339840432    3.54591996997804
C         6.45910969222659    7.24555723155520    6.62193195940627
H         4.71984645858216    8.39108728064361    7.15329633797362
H         7.94130591236961    5.90782394034432    5.82075137138440
C         0.40074995680444    1.46591326235150    3.06488139659915
N         1.43803426382130    0.65424930417709    2.81905268289776
H         7.10490134892591    7.68703570424945    7.36559038355416
N        -0.72538411024963    1.43992609214842    2.42275675389259
C         1.42250366523967   -0.40774352821933    1.84997077323664
C        -1.60856173709799    2.41357278611674    2.78141684355332
H         1.37777010329609   -1.37466215015249    2.35371321589476
H         2.33403335778222   -0.36057736196826    1.25615385526944
H         0.54263889603157   -0.27617102511963    1.22473745009903
O        -1.35501968592125    3.25525025153115    3.63703219509111
C        -2.90702093883022    2.36173626603265    2.03171893794350
H        -3.44691838944546    3.29606126611620    2.15401154376230
H        -3.50634634757972    1.54808126966987    2.43589923872618
H        -2.72050167850301    2.15371275608430    0.98232511304519

