103
CSD_code = KUZLIC | q = 0 | S = 0 | Stoichiometry = C42H55N3Si2Zn | MND = 3
C         2.90386671177307   15.02531898161057    2.07536157058275
C         1.60316705677580   14.56548890961632    1.87581111687972
C         0.49423937043684   15.35428508988498    1.46890713380121
H         0.51522906476922   16.41327894004693    1.29574612983321
C        -0.57283775236322   14.50211503532770    1.33877496144882
H        -1.57013961755307   14.74323399333152    1.02558019201389
C        -0.10259313401580   13.21100177948401    1.66619114176302
C        -0.86180315561212   11.95834520881664    1.63723274392744
C        -1.97583366945371   11.79354531265991    2.46541281124330
C        -2.68404540062418   10.60263405997471    2.41562911555498
H        -3.53813738771716   10.46990949044025    3.06537458856617
C        -2.31955014125646    9.57692653286258    1.55604190103242
C        -1.22617239873238    9.76870975973320    0.72242450256006
H        -0.94293326277256    8.98257596281312    0.03624600218120
C        -0.49065859402108   10.94178751118182    0.75010924870350
C         4.02365810792327   14.25818456062411    2.39341967570989
C         5.35679012352195   14.73539850217051    2.49259860306824
H         5.66162384960531   15.75696941963115    2.36852624356759
C         6.15061687154894   13.64758541676113    2.75937466628763
H         7.21557631894377   13.62364449002898    2.89012642902771
C         5.29300545087757   12.52991859559055    2.82574594985147
C         5.68881139199701   11.13566062752061    3.06565455095957
C         5.88489343666367   10.68616387685393    4.37256172814914
C         6.30522886846965    9.38245395058055    4.57849563685653
H         6.46889036975476    9.03204174982450    5.58854184309035
C         6.52456810849125    8.51606025272007    3.51569572085780
C         6.32485066538816    8.98223285785024    2.22551019797230
H         6.49657826674455    8.31922987802132    1.38890086673673
C         5.91515230976645   10.28435183123860    1.98338141793156
C         5.74443149323509   10.78637093103087    0.57958557049371
H         4.77720484273506   11.27243043848891    0.45576996923145
H         5.82112067092173    9.97006414596016   -0.13440148831929
H         6.51421046798609   11.52354665148518    0.34885537533114
C         5.62308901531873   11.60708248944605    5.52450654452402
H         6.19167788948859   12.53020918422726    5.41739167054899
H         5.89210387947376   11.13638580688443    6.46707017867916
H         4.56441709593287   11.86603130346771    5.55128342866749
C         6.93984143255702    7.09865507685116    3.76832514965495
H         6.06988519845776    6.50620093963777    4.05319687266942
H         7.66120218739121    7.04482743594698    4.58122605387030
H         7.37765536092329    6.65471394526303    2.87753528513668
C        -2.40771372059112   12.88265987735887    3.40199201351031
H        -2.95096350215970   13.65550955801081    2.85820887753037
H        -1.54748559843980   13.34736005176658    3.87818856743100
H        -3.06531313622343   12.48723708857782    4.17227418895327
C        -3.10246782172685    8.30001999557048    1.50694278799557
H        -3.59287505694874    8.10922778599724    2.45849437926695
H        -2.45444128234528    7.45949292430273    1.26943390020373
H        -3.87130585572761    8.36236323561300    0.73573299706283
C         0.65539662408173   11.13345794126216   -0.19966614340300
H         1.60687135152188   11.09407454579781    0.33417308666203
H         0.58752150315111   12.10408998187757   -0.68950283823738
H         0.65628258654477   10.35489422334624   -0.95923824292739
C         3.12892876585297   16.48155393670313    1.88943025422099
C         3.43788148294962   16.98124706480650    0.62450436898212
C         3.64105580868665   18.34430181439035    0.47109668155633
H         3.88002364221134   18.73452510611378   -0.50830298823200
C         3.54260545855075   19.21578466738247    1.54591406135737
C         3.23548047870475   18.69710578288111    2.79608710520189
H         3.15600171910300   19.36554875829301    3.64191358081604
C         3.02708739275075   17.33977740879679    2.98452186288901
C         2.69805587238810   16.78950616015651    4.33884574523580
H         2.62599744631965   17.58727347223559    5.07372538894014
H         3.46714873354526   16.08716441211268    4.65910833060217
H         1.75250068473243   16.24952750250949    4.31191064044925
C         3.54513806952087   16.04908182444265   -0.54435566645174
H         4.30756130213035   15.29347562803496   -0.35787541857706
H         3.80344394187595   16.59261886974163   -1.44960766751294
H         2.60011925290843   15.53072016882909   -0.70353623278360
C         3.78554575912977   20.68429963721568    1.36966786720203
H         3.13767135623411   21.26482233328439    2.02275975780187
H         3.61179261009271   20.98650904116836    0.33974534128358
H         4.81877979261377   20.92394779159559    1.62334699734593
C         2.58821173862838    8.81408950864651    2.03384139769339
H         1.79457571246525    8.66840296707366    1.30939869518978
H         3.27277238120137    7.97734623108907    1.94791184602752
H         3.14083875901129    9.71176773119068    1.75857813161575
C         0.17096738747729    8.15750297543682    3.86278765828998
H        -0.18494090557720    8.08435131794668    4.88418451772952
H         0.20135042840759    7.15300597436281    3.45213393597479
H        -0.55934463671841    8.72664625704419    3.29878307620373
C         3.02430579064997    7.99586436892186    4.98956502380639
H         4.01848275563982    8.42571303953718    5.03518531185237
H         3.12048228395607    6.96467387387762    4.66312471286560
H         2.61933595513433    7.98479257081995    5.99482114020982
C         2.14114298929487   10.67092341634834    7.19059369650506
H         1.73600273542292    9.71311522374058    7.49837230340031
H         2.02244639188169   11.35665583827905    8.02391867058009
H         3.20224299629128   10.53482216634609    7.01846581066261
C         1.47265759424380   13.20035941673093    5.52407530953507
H         2.48294970328837   13.44959944859024    5.20388594419428
H         1.30437385722953   13.68877669313964    6.47865763368124
H         0.78074861739200   13.63805960604793    4.80987793802825
C        -0.63133814750143   10.94620030801105    5.89392061888479
H        -1.14052330162168   10.82485978156311    4.94505672299225
H        -1.12397388931244   11.74280431507399    6.44290114444827
H        -0.76761993208170   10.02943004248669    6.45757664509342
N         1.19250833442964   13.25219439397580    1.98510843101713
N         4.02810548248141   12.89233169999586    2.60989046310090
N         1.85042040132762   10.66546047511920    4.16059830077698
Si        1.89386808010705    8.97848953419227    3.80577936808974
Si        1.22845755420976   11.30479719473489    5.63470929198660
Zn        2.33778585788050   11.95581411326321    2.88584137432596

