97
CSD_code = KUZMEX | q = 0 | S = 0 | Stoichiometry = C44H45P4RhS3 | MND = 5
Rh        2.92505926968843    4.96503405798497    3.54157552680724
P         5.23158193531268    5.11817345472694    3.30787351771484
P         1.75301636916822    2.97437372766612    3.12571223794978
P         1.55480425424584    6.88133468175385    3.41676363844089
P         2.92355025282200    5.12966103920781    1.35285608166145
S         2.79707357746608    4.64250642220344    5.86686090255050
S         4.17596360206121    7.24011032877290    6.03112879538460
S         2.87940914710181    6.03729568319970    8.42431804821328
C         4.59371868271464    5.43030356483934    0.64109081929582
C         5.56980258380934    4.66490505098368    1.52780687307088
C         2.33008378180786    3.60899892448281    0.50328378322912
C         1.19905485700153    3.04180005435080    1.35015110564414
C         1.82142519535839    6.45281747100785    0.69249959493883
C         1.79090197236728    7.58770450527149    1.70830818734267
C         3.24986223591707    5.96154653727761    6.82466737906275
C         4.44525822477742    8.40500048799690    7.38608790513736
C         6.09582261583820    6.73392334489898    3.27858320726847
C         5.34283361676569    7.89830188444162    3.22905966635339
C         5.96003604811046    9.13257008389409    3.15022890046627
C         7.34236132257732    9.20904784870217    3.11969769081270
C         8.10067887643126    8.05003475019686    3.16914121181907
C         7.48372723403549    6.81494705711833    3.24632456353385
C         6.46142559585625    4.13590684244490    4.22220207734591
C         7.15638439761912    3.04473048731280    3.71225185987433
C         8.01419246586053    2.32979734798149    4.53057973039030
C         8.17578435462173    2.68493677897927    5.85895465535228
C         7.47629016722117    3.76471396429611    6.37542572059882
C         6.62233010747771    4.48279389899601    5.56271695244127
C         2.72130406542490    1.42010369835345    3.11399604253300
C         4.03471754796543    1.44725663022655    3.55999043904347
C         4.79347616801322    0.29077300359872    3.57994355011799
C         4.23788432907083   -0.90267397178095    3.15218460112274
C         2.92089550404812   -0.93901952995391    2.71839053336432
C         2.15977122145063    0.21417697961108    2.70468874630864
C         0.27970622646642    2.32057751894578    3.97517926405046
C         0.47896786255786    1.99924127155074    5.31728933844624
C        -0.56123988242803    1.50777763496821    6.08021247335562
C        -1.81294341359775    1.33222978851991    5.50972873037795
C        -2.01824730140775    1.65993369038528    4.18050565268618
C        -0.98012175877938    2.16000182820828    3.41263265387523
C        -0.22817825583801    6.46347752851524    3.44830142246177
C        -0.60873201303215    5.48672284336208    4.36479459934489
C        -1.93690975979489    5.13291902549709    4.50880886844307
C        -2.89943924199439    5.73558724973840    3.71661800171842
C        -2.52848518143217    6.70357651326690    2.79787539899040
C        -1.20265534785568    7.07846900346962    2.67055719200668
C         1.47471542909203    8.37165612937599    4.46320313991332
C         2.01343600189176    9.60466569662758    4.11444657348040
C         1.99844787267319   10.64854042052862    5.02319638510834
C         1.46067803845042   10.47190969435506    6.28610865747360
C         0.93389536942043    9.24025494998862    6.64485519769554
C         0.94386881909322    8.19721691688985    5.74085068668666
H         4.79423729862851    6.50654381918949    0.69849232133711
H         4.64027996142371    5.11139253649643   -0.40597780460127
H         5.38995838287438    3.58967351647940    1.42330630690218
H         6.60969281624947    4.88704023752148    1.26988524651398
H         3.16715054609003    2.90196142012325    0.47367556753617
H         2.01528528810227    3.83340065833361   -0.52205331441980
H         0.33754348456324    3.71819717044285    1.31906858918423
H         0.89288044049965    2.05287926081444    0.99859028652067
H         0.82307451022291    6.01174376615292    0.59031742771958
H         2.16555549399672    6.78642461838301   -0.29284765081348
H         2.76169865103983    8.09248822323043    1.70601708961728
H         1.02133099017517    8.32718490859743    1.47276564413739
H         5.05594243675841    9.20508941704147    6.98063809434783
H         4.95377434307647    7.89484992648841    8.19902076989314
H         3.48254957409345    8.78018830640971    7.72134648090006
H         4.26386506050110    7.81786711753755    3.29016997402719
H         5.36591676153645   10.03513256429854    3.12357672767424
H         7.83088893202658   10.17113132646014    3.06436040258809
H         9.17952561021548    8.11030003835696    3.15077020577223
H         8.07968389206571    5.91358014431903    3.29350437222522
H         7.03572816270038    2.74741147354592    2.68056863576381
H         8.55964838696320    1.48796394276427    4.12667351955234
H         8.84281069380798    2.11838541603188    6.49213965728816
H         7.59364267709359    4.04110751678896    7.41289631893089
H         6.06725094568178    5.32608892781212    5.95177445999611
H         4.45013535265796    2.38889621109563    3.90380691642905
H         5.81308062250836    0.32344919415866    3.93606016967790
H         4.82479255605340   -1.80960669374035    3.16508115780832
H         2.48452578575007   -1.87433448522424    2.39791730553370
H         1.12488333504541    0.17589359299433    2.39169819935091
H         1.45839571229303    2.15503610878011    5.75189000951232
H        -0.39991613119651    1.26470986696117    7.11997178310879
H        -2.62955621907039    0.94682663789752    6.10295932157615
H        -2.99548221046877    1.53079440011436    3.73668465512341
H        -1.16500499992154    2.42150972287984    2.38121547377738
H         0.14993390421637    4.99770602663758    4.96509722737925
H        -2.21677883466403    4.38324643810065    5.23385663312913
H        -3.93803565595016    5.45541365247011    3.81545886250397
H        -3.27868828989763    7.17826617527862    2.18094360448923
H        -0.94310519692242    7.85381764779010    1.96436888900919
H         2.44716558898782    9.76142331060751    3.13760071953684
H         2.41554857065158   11.60599744445778    4.74368405507793
H         1.46013766896772   11.28858735307790    6.99337946573753
H         0.52599067896910    9.08870166793594    7.63375849997609
H         0.54991737806968    7.23039467879276    6.02597894138611

