60
CSD_code = KUZVEI | q = 0 | S = 0 | Stoichiometry = C25H27CrNO4P2 | MND = 6
Cr        8.96178514170964    2.36098628875762    3.59116921854180
P         7.95309574288041    3.23460091376725    1.63926587824300
P        10.61360555872684    3.18516468073927    2.13249965567310
O         6.56859114218082    1.54988874562369    5.19969105679683
O        10.58769420995846    1.50722745118179    5.95361254138282
O         9.35668765951835   -0.51170104332568    2.81042833959678
O         8.65423624672524    5.07927792280682    4.83448533740690
N         9.45947025467525    3.76228491049983    0.98548103831580
C         7.20343568931160    2.43425038170212    0.17012726239009
C         7.66595418525006    1.15185925997944   -0.11021662463647
H         8.38997008793667    0.69880151923905    0.55685695459915
C         7.20269337260408    0.46643171584765   -1.21719180226723
H         7.56484356872893   -0.52886032032119   -1.42878547461457
C         6.26425922140054    1.05735229502527   -2.04895598975777
H         5.89416993119110    0.52283928053941   -2.91121638960386
C         5.79775505690617    2.33200472322368   -1.77295111351065
H         5.06638602260335    2.79162070884049   -2.42176480248814
C         6.26455572284799    3.02391848402179   -0.66859493205711
H         5.89665946935574    4.01891192536390   -0.45940136249888
C         6.98738594100659    4.76862320875723    1.77283696392230
C         7.56899279019570    6.03031489018657    1.75606061222951
H         8.62762318303367    6.13126972513125    1.55639976336591
C         6.79605223468835    7.14964167798584    2.00861618987843
H         7.24785798528286    8.13080953585260    1.98904991701320
C         5.44848615352620    7.01364639234797    2.29846294053284
H         4.84966911920070    7.88948111544402    2.49964395842929
C         4.87020683719878    5.75412583353023    2.34849661740314
H         3.82394511360053    5.64842626893107    2.59488316569136
C         5.63803795749445    4.63426568109482    2.09467284988954
H         5.20720834472587    3.64129312255012    2.14687998534250
C         9.54870453218645    4.19640185941254   -0.40354221392991
H         9.62654855128838    3.35279124677158   -1.09757001919559
H        10.40054126380265    4.85695020540481   -0.55543789716328
H         8.63873711060608    4.75004186990001   -0.64971126101967
C        13.33681349946156    4.26328431474385    0.52318205393113
H        14.28041298694406    4.06703856337431    1.02794853393867
H        13.59037251055789    4.78145079127289   -0.40662990906115
C        12.48951578369011    5.20803832107231    1.37659103437230
H        11.74516513754470    5.70000978738497    0.74522050894110
H        13.14280157347371    5.99769217518114    1.76156895944852
C        11.92948064646513    2.20586476779483    1.28138644302151
H        11.44518580109397    1.32195604152570    0.83914005663741
C        11.75353494364861    4.57424527880169    2.55899607061963
H        11.14019937241963    5.35887031989676    3.02680867297841
C        12.79707502447634    1.71006797930373    2.44862487260575
H        12.13381259514603    1.16545583615273    3.13183771666684
H        13.53972119502148    0.99949703044958    2.07459728279165
C        12.63694349103305    3.97500528428863    3.66355810947054
H        13.27541577879694    4.75733027787072    4.08380048077260
H        11.96310903976588    3.63614719690425    4.45971943436255
C        13.52042635864235    2.79715043250648    3.24604484001357
H        13.90884213403648    2.33572260529789    4.15774385403299
H        14.38654858033339    3.15455318752207    2.69143753523465
C         9.18120851839776    0.61298419507128    3.01475164773060
C         8.77720438624207    4.05930038895210    4.30614070253662
C         9.99171218043290    1.85704544187083    5.02459827547697
C         7.46389352376282    1.85717895053813    4.53721435236375
C        12.66461920367806    2.93893748191480    0.15524306946054
H        13.43329389331381    2.26799236490799   -0.24167074985899
H        11.95124643927061    3.11313850856273   -0.65253421239109

