73
CSD_code = LABHIG | q = 0 | S = 0 | Stoichiometry = C32H36P2PdS2 | MND = 4
C         7.25492549693099    4.45435832080423    7.94682899817727
C         7.89502837007161    4.30340015324144    6.72125488162338
H         8.92847492260115    4.60602259510118    6.61576436841540
C         7.20962876740351    3.75942798093258    5.65066961364873
H         7.70544965961841    3.64084460523155    4.69813433086068
C         5.88849098743996    3.36594664820578    5.79751780506187
H         5.35775269350823    2.94183831485877    4.95776244313053
C         5.24741746815077    3.51190489916700    7.01735162582243
H         4.21805827602528    3.20300964377791    7.12746767764543
C         5.92799426250186    4.05285981963272    8.09358046682269
H         5.42633229832783    4.17250919696090    9.07134418451128
C         9.73414642944671    4.45675469805153    9.32325329266147
C         9.79954781137569    3.06483648245971    9.33698190959495
H         8.88019226523102    2.49668292664423    9.38869195430846
C        11.02529156913604    2.42998858174201    9.30527572745759
H        11.07362665066321    1.35122710928396    9.31543827255463
C        12.19238453157471    3.17767403893339    9.26617418588519
H        13.15156564356557    2.68158686001602    9.24157711028350
C        12.13073282774744    4.56095195849716    9.26792196994897
H        13.04098351077721    5.14284741643745    9.24610300285830
C        10.90557768775844    5.20437297257840    9.30114393407376
H        10.86539026655661    6.28431941121217    9.31039664801160
C         8.27034209900344    6.94982775026619    8.89118443763114
H         8.83498772749337    7.46963467420429    9.67508358320309
H         8.80299806200756    7.03481782678995    7.93636942062229
C         6.86590068104335    7.53974117325285    8.80974563626491
H         6.30922182029071    7.05165688557132    7.99902829261217
C         6.90291630954619    9.04686451419857    8.56963572583979
H         7.31972838649131    9.53007940773973    9.45648800097822
H         7.56577941300103    9.25331639366820    7.72317884162028
C         5.51794862738309    9.61290140252892    8.28740983323306
H         5.10494465310490    9.17505815018048    7.38077506954267
H         5.56526975129135   10.69217304242593    8.16308878208325
H         4.85278514416275    9.38203805650022    9.11568038064465
C         5.51513306768427    2.28569500754597   12.31783896368839
H         4.79797387313219    2.27995180895573   11.48638816698181
C         5.68462519399485    0.87175733996764   12.86246084288403
H         4.76836057752509    0.58239648647481   13.38732456096894
H         6.50385816566786    0.87575774840545   13.58520505517857
C         5.98478997270847   -0.13394749092311   11.75910016999067
H         5.16242750736501   -0.17788866892541   11.04751456095708
H         6.13520199796694   -1.12582427813085   12.17849218475087
H         6.88552940197364    0.16372619870864   11.22846527199790
C         5.06549964659180    3.26611384969156   13.39974186689331
H         5.82431650800959    3.29321466034083   14.19053516535532
H         4.10230023604281    2.99746270978604   13.84586171068806
C         5.61081345730524    6.03131789566473   13.94325396652046
C         6.94917661892192    6.41586024339875   13.87157283940104
H         7.56460057810066    6.08052919831922   13.01865337500193
C         7.48885117935505    7.21596562186950   14.86174424371058
H         8.52402778547584    7.52011060119105   14.80943944780705
C         6.69696082247849    7.63171459983038   15.92089939765742
H         7.11673304567206    8.26090611914204   16.69209740435358
C         5.36769993656435    7.24627027456880   15.99460888630814
H         4.75582817498684    7.57360097086486   16.82270369335862
C         4.82052828369575    6.44392692823986   15.00963080332148
H         3.78243715737403    6.14392788258340   15.05732635427838
C         3.28309372407538    5.37417721861019   12.38228064928342
C         2.28205987994994    4.42223541024579   12.22076632175486
H         2.51489510796784    3.36790785280795   12.28332262413564
C         0.98163041767522    4.82505983212845   11.97186469118938
H         0.20395917588730    4.08407335018376   11.85404397882880
C         0.67762385249883    6.17202120903792   11.86828801283452
H        -0.33899593456922    6.48126503311902   11.67450982990552
C         1.67933037793590    7.12212953095360   11.99843246423777
H         1.44547312942740    8.17176908379309   11.89910479764279
C         2.97923663101659    6.72802799381895   12.24733311670913
H         3.77555988245373    7.45593540750591   12.32526985345311
P         8.08162773377328    5.19428487379437    9.39058065513373
P         5.02317103339471    4.93651014827573   12.62087787562832
S         5.94525739401567    7.20233739830309   10.36486448855007
S         7.12122027673158    2.88312297314000   11.64199783058972
Pd        6.55166905802371    5.04682306570976   11.00310147040949

