63
CSD_code = LABKOQ | q = 0 | S = 0 | Stoichiometry = C30H16F6N8O2Ru | MND = 6
Ru       -1.50222004464116    2.99331808119868    8.76183612072890
N        -3.18724389664864    2.63666950435553    9.75127672017189
N        -1.09894930102678    1.14530113361824    9.32611557101171
N         0.26702781327464    3.15544662325306    7.88534388534675
N         0.61078885658598    4.26651897087646    7.29254918775606
N        -2.15236122354436    2.61629136572633    6.92373147284606
N        -1.85722857569959    4.85606671777681    8.21281262098449
N        -0.83157282825176    3.59709553977200   10.52544389816651
N        -0.40597831615949    2.72800904956386   11.40164824494629
O         1.53091549170518   -0.15103767825346    7.34855747470734
O        -2.03402913398661    6.92412333270508   11.07644126530801
C        -4.24232570898056    3.44365738770966    9.88340220551188
H        -4.27744699137050    4.30131384271619    9.22090332737165
C        -5.24279871640779    3.22947864647479   10.80888709830420
H        -6.06822158027834    3.91856540638686   10.88168867157310
C        -5.15060059893039    2.12483609360867   11.64803297880463
H        -5.90418861477985    1.93572847104977   12.39575218350938
C        -4.07154121753440    1.27387562291227   11.50775710540831
H        -3.97667901218617    0.41517537982337   12.15050058505726
C        -3.09655415084906    1.54485782856285   10.54782106245635
C        -1.92041987569349    0.70736091852343   10.31094666773977
C        -1.65186835867967   -0.45409027265671   11.03119850225598
H        -2.30072407225040   -0.76085967516151   11.83373968451003
C        -0.52598219305228   -1.19716364993980   10.72800019242268
H        -0.28565741237686   -2.08691679199080   11.28754832832239
C         0.27878286457851   -0.77242278916467    9.68738293872499
H         1.15554109460367   -1.32146581752362    9.38204758942878
C        -0.03047223080707    0.40475945525105    9.00860352653218
C         0.89961276114044    0.75183691768709    7.87396091106985
C         1.03782262883936    2.12893768755663    7.45520861356624
C         1.95593105746398    2.64392924764522    6.52378540019872
H         2.71742114410655    2.11107811481206    5.99484508389982
C         1.64003078707726    3.99219414243184    6.46858884053716
C         2.20468389952169    5.06115588935738    5.60984952082093
C        -2.32364618104440    1.42436331346998    6.34752705458039
H        -2.29890370448776    0.56380544358141    7.00673167175127
C        -2.51403911089399    1.26448415042746    4.99053051693169
H        -2.63595126323403    0.27780314146966    4.57453062720816
C        -2.52614657133044    2.39431837348622    4.18044490468482
H        -2.65428603598581    2.30654897693325    3.11337846971481
C        -2.36752881897710    3.63390789403181    4.76906631384344
H        -2.36864533337356    4.52227040461077    4.16050852853801
C        -2.18344637905477    3.72668943149065    6.14858239927469
C        -2.01269834651363    4.98649772245176    6.87285892958157
C        -2.00855048714827    6.23181806149106    6.24914726481818
H        -2.09645082894345    6.30633089533759    5.17866971969948
C        -1.85920462655514    7.37443357337662    7.01321650906210
H        -1.82951256458374    8.34747425733195    6.54970983562553
C        -1.75376080230549    7.23641354933163    8.38460697728546
H        -1.66311629030762    8.08863671543141    9.03951417784772
C        -1.75085516232608    5.96473546274914    8.95466672518858
C        -1.66178235809058    5.93897288821811   10.45949714919241
C        -1.12492832179607    4.77395205355754   11.12697006986861
C        -0.84282303344102    4.63650737076692   12.49701277072008
H        -0.95021357175934    5.37474449388174   13.26318991171539
C        -0.39059615018632    3.33095377839549   12.60559763907522
C        -0.00650969090519    2.56145582338118   13.81358135294849
F         2.68654129279984    6.11088703227806    6.29439415539280
F         3.20298052469844    4.62223113012287    4.82850999982087
F         1.27290113064620    5.57414286417982    4.76834674940645
F        -0.83375488010506    1.50692996673306   14.02165764529345
F         1.22985777179325    2.04168130407897   13.75698340090171
F        -0.06182455135529    3.29768523073798   14.93356105003680

