62
CSD_code = LABKIJ | q = 0 | S = 0 | Stoichiometry = C26H31FeNO2Si | MND = 8
Fe       -0.02923716697426    1.82332777882349    3.30644330781285
Si       -1.85400267831624    0.93995636216059    4.29417536324315
O         1.76351036275094    0.75533180027005    5.29858950329824
O         0.40817351296356   -0.80215892321483    2.19654779915914
N        -2.79735635855167    2.07789159064612    5.28257704090907
C        -1.59719782828366   -0.61833688980380    5.40836134323233
C        -3.02377105742238    0.29718352856050    2.91394046259285
C        -2.25678287174913    2.90371759287298    6.25640568275083
C        -3.00946542091715    3.96304540423474    6.77760659860918
C        -2.47706248506064    4.80955781842588    7.72937031382344
C        -1.18237161535478    4.62950442590036    8.18757495650859
C        -0.42739757933589    3.58830776034542    7.67452289121004
C        -0.95410754816615    2.73753548283707    6.72234004796312
C        -4.19308052093507    1.88406407987187    5.36214088236774
C        -4.74500177036895    1.36827341282685    6.53275935219422
C        -6.10561661359660    1.15373970102072    6.63149669641710
C        -6.93741398809023    1.44822532234877    5.56302969806736
C        -6.39563030045451    1.96423080805840    4.39898181286846
C        -5.03333677815068    2.18403919836629    4.29822788155896
C         0.99518258089812    1.22099943440166    4.57986388848990
C         0.18068955496186    0.24337237858649    2.61874414734064
C        -0.66599696645426    3.00621385503191    1.56803571385549
C        -1.05178055283951    3.78163829208403    2.70102771115993
C         0.11674915533882    4.04215501851860    3.46912046828833
C         1.24342743063947    3.50197316065189    2.76589904261040
C         0.76174750171634    2.87017129230313    1.58854956749153
C        -1.52202333149809    2.67225607004301    0.38453177890082
C        -2.38510532702471    4.40709236344841    2.94396304845846
C         0.20243028496306    5.00515466710562    4.61070706882070
C         2.67840185588770    3.75004877802477    3.11144247057939
C         1.59620839687713    2.33378047683491    0.46757722595548
H        -2.55186275125000   -1.06159492689099    5.67945256607480
H        -1.01767539611738   -1.37343962187966    4.88790555722070
H        -1.07400340337306   -0.38479310432001    6.32984354483533
H        -3.24768210328508    1.04828962398935    2.16785299752455
H        -2.53778514297910   -0.52664227262238    2.40390892449521
H        -3.96295112081755   -0.06736509849510    3.31471312104615
H        -4.02074336186988    4.11784190778454    6.42857656562178
H        -3.07962841664527    5.61983512985852    8.11433386927699
H        -0.77019319959281    5.29000052432792    8.93524603278494
H         0.58194660901350    3.42845022866894    8.02574209132253
H        -0.36212734285428    1.92781896175556    6.33374207113577
H        -4.09011372227343    1.14037503362002    7.36107056709266
H        -6.51965685433371    0.74949077552557    7.54376045452321
H        -8.00099076461624    1.27819208925655    5.63934917133860
H        -7.03821533062472    2.20318569012191    3.56371196573096
H        -4.61579698684127    2.59612055254208    3.39508969507980
H        -2.57674896578367    2.67253086435926    0.64514817154976
H        -1.36766734055734    3.40999904650567   -0.40527260275345
H        -1.27149084958057    1.69209230922994   -0.01468438091080
H        -2.33211803979651    5.47176100597001    2.70789740640527
H        -3.14885949631905    3.96103234328750    2.31337713835447
H        -2.68648489405590    4.30863070156479    3.98307722530920
H         0.96549385588934    4.70559648013541    5.32448669613055
H         0.46149226265904    5.99698730495335    4.23370824086997
H        -0.74499098816246    5.07526895727874    5.13645859230238
H         3.31388322111483    2.94875516027588    2.74260385734456
H         3.01220603730124    4.68641869343216    2.66035800580921
H         2.81072257903198    3.82587644880460    4.18771290375121
H         1.07515450552416    1.54011299285657   -0.06163330999530
H         1.81618064887367    3.13101535684727   -0.24501823039846
H         2.53882487486160    1.93786479968020    0.83682732458786

