31
CSD_code = LABMIL | q = 0 | S = 0 | Stoichiometry = C11H10N4PdS5 | MND = 4
Pd        1.81135643971775   -0.51539437369640   15.14051755207049
S         0.84604826189197   -0.26292361031769   13.02288599077114
C         0.93473570276122    1.41539010695802   12.90258379724155
C         1.47153316986768    2.27872170825342   13.88026645267743
S         2.11454384671657    1.79694916030561   15.36150401102526
S         2.73223008296926   -0.79570128958564   17.19178101982669
C         2.68776413735994   -2.50586579562643   17.40087217351749
C         2.17596988816520   -3.34839775563463   16.43660766599474
S         1.53892889844069   -2.75609461910254   14.94892766811143
C         3.20403789605997   -2.99909352180956   18.61424054645085
N         3.62943007537869   -3.37459035694553   19.61053483621721
C         2.14684794928021   -4.74454955382810   16.61517466088708
N         2.11317996598366   -5.88418216948209   16.73712537534703
N         0.50847729466442    2.19569091874364   11.86945734500477
C        -0.06497578402674    1.71508074772611   10.63544622085878
H        -0.65196253737414    2.53228646845900   10.21014350788214
H        -0.72153272929742    0.87607248691142   10.87869242584954
C         1.02216149860241    1.27616461917158    9.66152579128701
H         0.56494341988766    0.91264918687398    8.74660219847243
H         1.62035679483703    0.47740741050337   10.09343156974629
H         1.67092879921021    2.11414887955384    9.41837918267606
C         0.77770717304696    3.50799430478710   12.15754751454449
S         0.44667471073464    4.80084139100827   11.19767743506820
N         1.37274487358113    3.54734957599536   13.39140470098905
C         1.76767313037992    4.75006279034928   14.08435952434743
H         1.97203911899629    5.50954624312526   13.32605242663343
H         2.68167037151453    4.52751473378604   14.64044346801695
C         0.67001084028892    5.22445402684215   15.02952835724376
H         0.99377716514359    6.12766392589937   15.53718305852938
H         0.45397703324149    4.46329143398241   15.77547560781366
H        -0.23767748802345    5.44391292679278   14.47242791489782

