33
CSD_code = LABSEN | q = 0 | S = 0 | Stoichiometry = C12H14N4NiO2 | MND = 4
Ni       -0.00000048654033    4.52050138021882    0.00000061198867
C        -2.58770049882360    3.38006560632510    0.26881028793189
H        -3.31688847775873    2.82727990888881    0.86360338935793
N        -1.44976599217823    3.68851771049866    0.81713035255491
C        -4.24648074087802    3.31392577788313   -1.56263526348848
H        -4.84768505751727    2.70713047144699   -0.85442936755550
C        -2.96730789535417    3.72658238431568   -1.03871425089634
O        -4.67834399939176    3.57533757697689   -2.66597690680547
C        -1.23905612607849    3.37022746805669    2.22411767872692
H        -1.79786021104388    2.47349672207096    2.51773730386715
H        -1.59495846990911    4.21419867767134    2.82968388993305
N        -0.95488458407454    4.94545791884302   -1.53212498163775
C        -2.13630988590453    4.51928229780843   -1.85589606163798
H        -2.55958268566390    4.78968836827587   -2.82373537246749
C         0.26512762529247    3.18519142133251    2.43853746475372
H         0.54935840186497    2.15631794634758    2.18170271282152
H         0.54745475349625    3.37372553109840    3.48060539257976
N         1.44976534140503    5.35248397737886   -0.81712955792138
C         2.58770122296637    5.66093303654887   -0.26881065442288
H         3.31688983286698    6.21371655170205   -0.86360463251474
C         2.96731065586595    5.31441224329372    1.03871246187692
C         4.24649039175903    5.72705497781423    1.56262774613464
H         4.84768059655381    6.33388047512217    0.85443187395348
O         4.67834160741342    5.46566948099914    2.66597725502366
C         2.13630918460236    4.52171839365199    1.85589701758322
N         0.95488311634103    4.09554465166129    1.53212652539261
H         2.55958299994879    4.25130962620068    2.82373504331663
C         1.23905542350584    5.67077387733415   -2.22411686827023
H         1.79785958636620    6.56750433574122   -2.51773644428694
H         1.59495758732704    4.82680272351307   -2.82968300111903
C        -0.26512838897164    5.85580990833949   -2.43853662324090
H        -0.54935950048769    6.88468343602786   -2.18170250076242
H        -0.54745532699965    5.66727513661235   -3.48060452076916

