76
CSD_code = LABXIW | q = 0 | S = 0 | Stoichiometry = C40H28N3O4Re | MND = 6
Re        3.06706582971885    1.10598841352289   12.40968473800802
N         4.19479511683480   -0.06790269272528   13.83518875616090
N         4.28243279389421    2.55545808306707   13.45930544419401
N         1.79307376362531    1.41687485888184   14.13749872804843
C         4.42789533389086    0.85067449841085   11.03765839873197
O         5.25304354175590    0.70875286820460   10.25290443812622
C         2.01374815587005   -0.36053594550247   11.66689508109761
O         1.47408664963835   -1.25231953789015   11.18492065147657
C         2.10223694183687    2.31390069728512   11.22185010107391
O         1.58615253489927    3.01543122082716   10.47105566080118
O         3.14658748845407    1.55100683589247   16.04414197006475
C         2.08155593178063    1.47370017345781   15.42920937923377
C         0.63041920247917    1.42729573022342   15.92029885675692
C         0.34094207864895    1.27491592537329   14.36169952722886
C         4.08331166032861   -1.38409202449556   13.98519777042400
H         3.43745666988619   -1.89468192068807   13.28191255140731
C         4.74230659705058   -2.09046107008819   14.97357737154501
H         4.60780472141342   -3.15657428054573   15.05826867883088
C         5.57128835286089   -1.39400611995626   15.84047712646999
H         6.10987544116965   -1.90733754938008   16.62255189070768
C         5.69614829311553   -0.02819415468458   15.68741773175458
H         6.32665936804775    0.53088675152329   16.35720540271853
C         4.97290457604949    0.62119923059947   14.68560076356275
C         5.01461944851807    2.08096172361378   14.48154422367420
C         5.76261812100266    2.93791893557186   15.28990549108190
H         6.34890136877796    2.54729464134607   16.10366817601366
C         5.71787610585062    4.29929134953267   15.06715136781318
H         6.27586771420909    4.97473984105765   15.69764747600382
C         4.94295866834180    4.77888201570902   14.02164142260844
H         4.87212180253354    5.83368972833721   13.81112786111838
C         4.25245056043786    3.86798332026717   13.24491414234182
H         3.65025206461351    4.20502622542054   12.41009569753651
C        -0.50608671257447    2.41644030335621   13.86934202438606
C        -1.87640306187252    2.42078587994578   14.11321698914641
H        -2.33882960323363    1.57275800747314   14.59685841596068
C        -2.65289008235627    3.50387282325330   13.74931739332803
H        -3.71531810176294    3.49079635519906   13.94515606402718
C        -2.07284494770342    4.60556910168092   13.14344835755225
H        -2.68093312689684    5.45196008564830   12.86008622949955
C        -0.70913099732927    4.61891977019133   12.91539228675386
H        -0.24480365868633    5.47841012330875   12.45436939124231
C         0.06743011553702    3.53625267806312   13.28584886211854
H         1.13592857030385    3.56317208828119   13.13163249148097
C        -0.07864250167757   -0.09046725445000   13.87483161791678
C         0.60567283967312   -1.21376874986201   14.33933028658270
H         1.39428620233837   -1.10098026237426   15.07059478352849
C         0.28725312865419   -2.47797585592592   13.88277904869422
H         0.82160036241547   -3.33549121121444   14.26673851615708
C        -0.70619015966002   -2.64425189033118   12.93358864674012
H        -0.95516005852826   -3.63155520745907   12.57411185754083
C        -1.36326245415408   -1.53361197194433   12.43547209550224
H        -2.12108769880785   -1.65006147867955   11.67486806851138
C        -1.04964383426433   -0.26686355867651   12.89564242317177
H        -1.55600822959520    0.58896699119417   12.47660011322997
C         0.28528094726432    0.29914523179281   16.84247269090535
C         1.18677668830764   -0.04639920046503   17.84339007552543
H         2.12302429970833    0.48746132656173   17.91616502421399
C         0.89645840899741   -1.06970292225715   18.72729933617750
H         1.60767138090752   -1.33031315093484   19.49823016116022
C        -0.30148412825548   -1.75627777024043   18.62832806255664
H        -0.52890945221745   -2.55518929322156   19.31908200286179
C        -1.20831780740183   -1.41210575250988   17.64050248493428
H        -2.14706801235069   -1.94098579197407   17.55886340850211
C        -0.91936385005440   -0.39133447414661   16.75361054777952
H        -1.63186007304657   -0.13810491546396   15.98225085705779
C         0.16411293454696    2.74985433980089   16.47534040435236
C        -1.04435820062622    2.85461576797527   17.15447315528851
H        -1.63944696683551    1.97154691190589   17.33238192488746
C        -1.49371888188239    4.08020832229969   17.60953378015502
H        -2.43758807975831    4.14250219495970   18.13158111346990
C        -0.74265209065823    5.22270890049916   17.39735795866677
H        -1.09664961479966    6.18049312593787   17.74946441497137
C         0.46827021383299    5.12729049464388   16.73572021227087
H         1.06713148485946    6.01162808628995   16.57119730725029
C         0.91710668764099    3.90216321839821   16.27871085394452
H         1.86819122445085    3.84535081123240   15.76950138335909

