69
CSD_code = LABYUK | q = 1 | S = 0 | Stoichiometry = C16H40N6O3P3Pt(1+) | MND = 4
Pt        7.67756177268510    1.97431299662532    3.31303596447627
P         5.41816216357674    1.62391288918984    3.40129936071365
P         7.45740428093909    4.23441022988178    2.64946654606267
P         9.87953440134538    1.82159572324582    2.70854369583887
O         4.88856582661097    2.50776229706605    2.18051625278273
O         6.04182828327046    4.69053768870745    3.27224196847334
O        10.51738605188332    3.20724983911322    2.17150941135103
N         4.74291736746121    0.11804207623205    3.10838288620794
N         4.38373557057918    1.85122586047135    4.70343758979525
N         7.57602364557038    5.12147361605911    1.22056311658338
N         8.54764500755049    5.25846481395365    3.41628624532634
N        10.03410048981009    0.74984070179899    1.44149786769917
N        11.20771274843122    1.05245992337309    3.54203878693844
C         4.17929211568188   -0.50864859638094    4.28942753435848
H         4.79531695174775   -1.34797033254334    4.63498361443449
H         3.18977338049575   -0.90459818608651    4.03762190223921
C         4.08933859145516    0.58466559610356    5.36041445925024
H         3.08645638373580    0.64189866511614    5.79221913294151
H         4.79625076304711    0.39039858974297    6.17740209939882
C         5.30124359024432   -0.75427006639972    2.10186909581544
H         4.50577046650020   -1.36019783293002    1.66408537196887
H         6.06758902285726   -1.42497035961651    2.50459010447609
H         5.74314726542547   -0.13446229310460    1.32135678248151
C         4.57970768340183    2.96407325097261    5.60982966172684
H         5.33501449418054    2.74829805020247    6.37368123497929
H         3.63532568990101    3.18671647280807    6.10894981449272
H         4.89203667769038    3.82888403234539    5.03082432020675
C         3.50457949399165    2.55840321442428    1.83415009244925
H         3.40180309538114    2.28261651165900    0.78463748014054
H         3.14668305814927    3.57663531345304    1.98383065306308
H         2.92832319147752    1.87080644480412    2.45388433053351
C         8.87475190150948    5.75790307510888    1.09116164163611
H         8.76357988894080    6.67333218378678    0.50258647983772
H         9.58422337436617    5.10299990665839    0.56939217206133
C         9.35688110825347    6.05905417624575    2.51456925653116
H        10.41872098204650    5.81710956714601    2.62499409560648
H         9.22223607920383    7.11839571084607    2.76005713305433
C         7.03285726839979    4.55076484885803    0.00621768735521
H         7.74155812506962    3.88039855336749   -0.49389533166325
H         6.76933825044823    5.35313865102496   -0.68529198323789
H         6.13286312833608    3.99307248210818    0.26398905104375
C         9.14963737330360    4.81695448502344    4.65187644273955
H         9.23680901910069    5.65262769995974    5.35012248244424
H        10.14644359808469    4.38895603686103    4.49537203818774
H         8.49995017478538    4.05420705748898    5.09823946881402
C         5.64997104630670    6.06082967513104    3.32114209842741
H         5.86279972384711    6.46995219205833    4.30930608689030
H         4.57855841870253    6.10343582374283    3.12847143551365
H         6.18339179433152    6.63733810889706    2.56525395167483
C        11.04595958374952   -0.28416987276219    1.70898779185514
H        11.76884178625992   -0.34034675183789    0.88862090388353
H        10.59040574614952   -1.27703818099183    1.80048411111326
C        11.75353581527061    0.01212845639600    2.97621836996965
C         8.86315324744437    0.36183966302715    0.67982734329688
H         8.47726219254063   -0.61200073151560    0.99816377952409
H         9.10967858488352    0.30543499162502   -0.38301185052850
H         8.07787357054863    1.11776936498571    0.82040314951580
C        11.63607548718622    1.57236752723373    4.81986432450353
H        11.99386102479217    2.59877911564311    4.71168708729768
H        12.44146061895858    0.94753833098605    5.20193594542537
H        10.80125965188708    1.56603864827844    5.52287838301286
C        11.71800796737720    3.22606394996003    1.39872853796758
H        11.97543946745011    4.27197484779605    1.23785823558717
H        11.55974439587326    2.73030651185633    0.44005412413171
H        12.53328110405825    2.72553782194186    1.92465848690631
C         7.95914474581231    0.19817702299850    4.35521629259210
H         8.31074019969164    0.51956619213706    5.34535421968962
H         8.72266670352550   -0.45747866693999    3.93234887653414
H         7.06160732620164   -0.39942560519424    4.50698030366213

