68
CSD_code = LABYOE | q = 1 | S = 0 | Stoichiometry = C15H39IN6O3P3Pt(1+) | MND = 4
Pt        5.70428666010729    0.82138281711241    0.16704378495036
I         4.33537416081548    3.01556327161898    0.07582838822740
P         5.96281353572195    1.17691805863926    2.43758215422331
N         6.45682159601140    2.67081247253749    3.00657228322604
N         4.70794354369892    1.12295828603610    3.54338718357861
C         5.39147548512294    3.42996896888389    3.64111069424493
H         5.07828734020273    4.27173223000077    3.01292131167110
H         5.76743843996780    3.83165634789681    4.58729229474947
C         4.22535222658001    2.46043476560043    3.86478944552094
H         3.89098257391661    2.46601036891198    4.90552877384535
H         3.37180206750477    2.73436060982681    3.23187715110041
C         7.44791034075256    3.43085220257153    2.27898520983658
H         6.99266794156575    4.12318719966627    1.56179695666621
H         8.09964042546588    2.73358655192686    1.74694764625687
H         8.05086237555933    4.01122841712184    2.97960194097356
C         3.66819384641220    0.12345931846906    3.40216100165155
H         3.18934388299133   -0.03268464558501    4.36997989034841
H         4.12394371182263   -0.80862609141770    3.07377879786465
H         2.89990971762731    0.42517803235624    2.68057678896123
O         7.10539059261172    0.18779742547623    2.97179133651968
C         7.48317152537184    0.17253473280032    4.34749288478052
H         7.31528666690510    1.15012578509173    4.80066049179185
H         8.54209497808240   -0.07925711087389    4.39034649765509
H         6.90161694888558   -0.57912573008708    4.88051289672399
P         6.39542096792730   -1.36638872233743    0.24556808239282
N         7.96653221202343   -1.94239758321463    0.16576504751836
N         5.84972504939606   -2.61152075742037   -0.72579950240157
C         8.21608064243581   -2.63522788455394   -1.08863022484743
H         8.95255540106399   -3.42409925785081   -0.91160391776730
H         8.62950810984650   -1.94794815738565   -1.83760024899222
C         6.87596192962274   -3.21016909274256   -1.55804700990580
H         6.70472029271242   -2.99154013219635   -2.61674203284909
H         6.83994829497230   -4.29707075792763   -1.42605052964582
C         9.06793660403948   -1.13641367821878    0.64810539986304
H         9.88675888491967   -1.79201746950903    0.94913084537474
H         8.72968178631068   -0.57064551474190    1.51403959055112
H         9.44223117948777   -0.44530319653995   -0.11623831975301
C         4.49780517055105   -2.62363958233175   -1.22838346106513
H         4.43384836219469   -2.21163709037740   -2.24150241865978
H         3.87235073026759   -2.03054643716400   -0.55781246722904
H         4.11956906969902   -3.64790777555803   -1.24720691543488
O         5.80776878813488   -1.76148414294185    1.68213085621830
C         5.98393973059021   -3.06349202288736    2.23918919679361
H         6.46032948573092   -3.72846759764713    1.51855270264434
H         5.00493149583484   -3.45736367680612    2.51216350671537
H         6.60884944345356   -2.97774124077770    3.12770627588898
P         5.74024189242325    0.94300116393625   -2.12600560912497
N         4.59844254824423    1.30477703985980   -3.29172516069951
N         6.74991585090219    2.17584043700706   -2.63930300134429
C         4.64477120297034    2.70607951541832   -3.68820334759875
H         3.88055405438588    3.28780496428449   -3.15907696133049
H         4.43662380227946    2.76549011566585   -4.75999841844407
C         6.04699775773657    3.23184970952800   -3.35573317348536
H         6.60937551559463    3.47841658696268   -4.26142635149118
H         5.97635081951657    4.13660640654338   -2.74128332172482
C         3.26443794658510    0.74489431187953   -3.20454822779940
H         2.61304673198535    1.33301019417594   -2.54956201974115
H         3.32937895429236   -0.27284684781722   -2.82051309513101
H         2.82190920163638    0.71944055070730   -4.20134810269066
C         7.80072486271862    2.60464394321147   -1.73811509633548
H         8.68971664208333    2.88369231037599   -2.30715844935948
H         8.05671522878272    1.76937286390961   -1.07205422960162
H         7.49505142444109    3.46656325548634   -1.13328353680452
O         6.45473829613322   -0.40715841164224   -2.63976270525640
C         6.84404648209807   -0.53885958757996   -4.00767198259760
H         6.10028769573811   -1.12372641482608   -4.54924665042534
H         7.80648606836559   -1.04867455888791   -4.03648767430620
H         6.93762280621895    0.44464993836862   -4.46959314548622

