70
CSD_code = LABZAR | q = 0 | S = 0 | Stoichiometry = C17H43IN6P2Pt | MND = 4
C         0.36067025901644    8.43074535463865   14.55926207653101
H        -0.01030552730650    8.72095530721245   13.57462407371761
H         0.54015522529746    9.34430046294224   15.13031392662995
H        -0.42146802403470    7.86534681234984   15.06786867901549
C         1.10511221595228    8.48697592388509   10.33861976322590
H         0.15558543400777    8.04911751772359   10.67902938698614
H         1.16470147477749    8.37451461411925    9.25134508489275
C         1.20206861589862    9.94185288296553   10.76820790271338
H         1.90397642777177   10.49634013327670   10.12604185894467
H         0.22893921914929   10.44441206175747   10.72482921152793
C         2.29212452561196    6.40008835767726   10.74788546915816
H         3.23049981514002    6.01119220258575   11.13504856382579
H         2.24654080338681    6.19410218830710    9.67648228103581
H         1.46012508895606    5.87857216207796   11.23806832451765
C         1.84380572475457   11.08822002084747   12.85887705265098
H         2.21889582143414   10.84499026912843   13.85317642249494
H         0.88719087861165   11.60965484437996   12.96069389746055
H         2.55556516744079   11.76427259297733   12.36640907620126
C         4.92971995523601    9.05365942220062   11.13192916006627
H         5.37615889578698   10.05445211041083   11.08118884141069
H         4.18982538178006    8.97013443295692   10.33271414515086
C         6.01120154686237    7.99501323545606   10.92820939282151
H         6.38336386836374    8.04076674768465    9.90799163105758
H         5.60390792882348    7.00409171587444   11.11064809216360
H         6.84711466480233    8.14998337384508   11.60510820982824
C         4.95328908383278    9.02937431158538   13.61730469911926
H         5.77076680877924    8.30151204097406   13.65943742531024
H         4.24525020592414    8.79696301775510   14.43218962683202
C         5.51059915673646   10.43196802903474   13.84207838047904
H         5.93755720353004   10.49842816250308   14.83974358021703
H         4.72448325092238   11.17761923765435   13.74757674601766
H         6.29342948746623   10.65787330068104   13.12229274537460
C        -0.64065063255754    4.66183116816898   16.45382207445248
H        -0.97716729989366    3.67625378606197   16.79086058417384
H        -1.22856618735349    4.94255483919394   15.56796672399206
C        -0.78196404180521    5.71546037439312   17.54057514195383
H        -1.79122013212654    6.14268554353480   17.56415761704129
H        -0.56607877089519    5.28960297906533   18.53278845969198
C         1.13380056630049    3.69968376260183   15.09079809972671
H         2.21628288804536    3.63992128466035   15.01263226359335
H         0.72308071845024    4.00839908020603   14.12145192049510
H         0.74725692646160    2.70665271811981   15.32973110059758
C         0.28810308304654    7.89920258201904   17.97877431970562
H         1.06685154351906    8.53556392862370   17.55793816505345
H         0.54616711226795    7.66280638095831   19.01969688831877
H        -0.65744780545483    8.45009708688537   17.97470686854355
C         3.88517706975829    6.86186129060138   17.22552744655512
H         3.62367138913383    7.58697259046430   16.43382423830909
H         4.81530253444794    6.36143921351640   16.93481094321989
C         4.10430547745809    7.62367966541852   18.52932675410226
H         4.84292488158256    8.40625025799922   18.37410272887682
H         4.47119989760455    6.96068650521060   19.30895236938303
H         3.17688423814199    8.08008517528807   18.86779159437054
C         2.91147518556462    4.79256367261858   18.19863403097309
H         1.97588014606815    4.23302271761470   18.12962364166673
H         3.01768985442177    5.15470091453083   19.22878712234661
C         4.07736435811910    3.86852644130669   17.85380155322585
H         4.00500076502692    2.95215124164767   18.43385558799885
H         5.03174020477762    4.33914601446992   18.07467005214473
H         4.05665482995606    3.61865484138238   16.79627498830002
N         2.25009852984413    7.83390243883347   10.95099707056402
N         1.66329500899247    9.86131107864240   12.13256309445283
N         4.21191604949426    8.89816960156328   12.38021025513773
N         0.78218551652177    4.60782931597018   16.16278260846417
N         0.17953345899375    6.72150965512207   17.16262358557311
N         2.79162514280727    5.91470734144616   17.29100700828968
P         2.59168437146685    8.48085121675931   12.47641869656415
P         1.49279260568639    6.14013647001719   16.25699255622110
I         4.07813119471220    5.58677509402031   13.89526503982306
Pt        2.07846873669400    7.30815888358288   14.37626107871939

