61
CSD_code = LACFOK | q = 0 | S = 0 | Stoichiometry = C20H32N4O4Zn | MND = 4
Zn        2.21738235334710   -0.05565730513153    3.63551127674729
O         3.07848305434361   -0.67254302982337    5.19207740986195
N         1.84607231722148   -1.79344758588328    2.89083474981619
O         0.62911069234021   -4.18304422802499    0.63113401302223
N         1.17601974272079   -3.52490799525303    1.56893722331062
C         3.40408016923110   -1.87927989554963    5.40536663086773
C         4.19368268791140   -2.16112256677723    6.66437987392076
C         3.09564651513032   -2.96045965138791    4.58711412446364
C         2.33221059906300   -2.88841598281196    3.42602941260171
C         1.96075729387854   -4.12097963409756    2.63033012540235
C         3.18243547449155   -4.82759520908733    2.03273805142188
C         1.09839390073044   -5.10713604583859    3.42584386097871
C         1.02734954995088   -2.09023896951417    1.73959114405307
C        -0.44299086046850   -1.75109373404887    2.01267950545144
C         1.52414161572818   -1.35807433744485    0.49132939439681
H         3.43967276951498   -3.93514649719962    4.89395175126581
H         3.61710937187303   -2.80259628206861    7.32722945712888
H         5.12273337558140   -2.67168318814498    6.42168332081665
H         4.41286017025319   -1.22713507965110    7.17408714312445
H         3.75409635058184   -5.32602288356837    2.81005630373606
H         2.84016909173865   -5.56352612745388    1.30867566376331
H         3.82494412195299   -4.11056265189963    1.52602746823105
H         1.69733492440298   -5.62399873193138    4.16989918354563
H         0.28793573895147   -4.58327429484148    3.92757785579132
H         0.67379261872152   -5.83353187649568    2.73642188980824
H        -1.04939403991700   -2.10656307124729    1.18354965361763
H        -0.55826029089245   -0.67760984541519    2.12589651926583
H        -0.77070608187080   -2.23691800003235    2.92891824757145
H         0.93935544765405   -1.68245446028804   -0.36555006514440
H         1.41581864216471   -0.28501249012814    0.62784118010460
H         2.57032910216115   -1.59669018717473    0.31354378912221
O         0.65544330297633    0.99247730661334    3.72043988450561
N         3.29922131658498    1.24484141266256    2.71199281616392
O         6.12999524479537    2.63975633773722    1.18304111852347
N         4.98468370001606    2.34964481071579    1.64760979866161
C         0.49421074667035    2.09635461361481    3.11789009577911
C        -0.87499413802841    2.73224266652606    3.21300912316718
C         1.46385899227729    2.76934114351503    2.38267446451888
C         2.78441790123737    2.35515154754592    2.23865348524533
C         3.81053454246606    3.18375175043047    1.49638401509340
C         3.47922016101954    3.34030427829550    0.00821709841021
C         4.05469243076639    4.55090553729349    2.14486380286250
C         4.71793750400203    1.17263264871961    2.45574956071723
C         5.08608810241881   -0.09291965576317    1.67866558008861
C         5.51493813823219    1.25179257868413    3.76343222741009
H         1.18425784021796    3.70253023724978    1.92061754080091
H        -1.28997016194501    2.88398652997676    2.21906477249854
H        -0.80211086777853    3.70126919041568    3.70155150200192
H        -1.53543781768961    2.09006808927898    3.78864538367115
H         2.63554149225128    4.01047676988933   -0.12766295291515
H         3.23776551751537    2.37433177398735   -0.43025845409182
H         4.34937923615367    3.74810434822209   -0.50125868080158
H         4.19599583140513    4.44191576977294    3.21780195607123
H         3.21322916235394    5.21383420003750    1.96616374660000
H         4.95421822517804    4.98528142126727    1.71423496707653
H         4.50727214711442   -0.14469380593832    0.75925840357586
H         4.87906997978616   -0.97008794382371    2.28655160410307
H         6.14293267144371   -0.05880310787385    1.42697972579509
H         5.21101331149831    2.12946793657255    4.32936964224077
H         5.32722826575550    0.36668367427564    4.36331812660730
H         6.57380080281297    1.32707977832111    3.52949348755555

