75
CSD_code = LACGAX | q = 0 | S = 0 | Stoichiometry = C30H36N4O4Zn | MND = 4
Zn        5.67351448502883    1.98958959195404   10.69772347168928
O         6.50386850395029    0.74458931038093    9.57884994869303
N         7.29457423470804    2.79319502816386   11.38010521735070
O         9.35628629687917    4.82855040031328   13.35823373949419
N         8.83804349721618    4.00161796163964   12.54580315969512
C         7.75870642104336    0.64522329233460    9.38492921382939
C         8.18954835477604   -0.38391661741040    8.40327282658317
C         7.40461036270344   -1.52593654383881    8.25434290685450
C         7.75959586753895   -2.50994159530574    7.35198086278830
C         8.89507973151465   -2.35858346044038    6.57281181596375
C         9.66854929786009   -1.21602916885620    6.69683684197223
C         9.32251639853251   -0.23408640124300    7.60699051920745
C         8.73279092489275    1.40066383120807   10.03232428818644
C         8.47673397916023    2.37944653971053   10.98835513353282
C         9.59772284239074    3.10112840945074   11.70498833636115
C        10.43764749704577    2.16049759524937   12.57731147585801
C        10.49285648621315    3.90801692040630   10.75881807487138
C         7.40595011569371    3.80361604594579   12.40540377982630
C         6.74032804036768    5.11281429497479   11.97207303386188
C         6.81929136733974    3.32072711834246   13.73632149609696
H         9.76691368070850    1.18399860546628    9.82235816677526
H         6.52000917409125   -1.62548863937415    8.86493066558895
H         7.14951900542061   -3.39551831176783    7.25230858099516
H         9.17249662021922   -3.12488987064250    5.86408677679495
H        10.54508436976795   -1.08867779640061    6.07830476732913
H         9.91994916803636    0.66248766224837    7.67730937574714
H         9.79199241829028    1.53467950536771   13.18945208559882
H        11.06773745027940    2.76010940012624   13.23059318175200
H        11.06232056500389    1.52196378883047   11.95949424639047
H        11.11540250404102    4.57395609082391   11.35225904681967
H        11.12820804363216    3.24732004841148   10.17635573375298
H         9.88764982405785    4.50593217772523   10.08069762827127
H         6.93585253373374    5.87354522903949   12.72345564482175
H         5.66863485059470    4.96270673360909   11.86962483221095
H         7.15276852134092    5.44211100329612   11.02087041508411
H         5.73718281602655    3.26355998604468   13.66718766504915
H         7.21283393628079    2.33597113073116   13.97860499923076
H         7.10269485897062    4.02133602821478   14.51827192437811
O         4.58820814120303    1.38552044970829   12.10075421381204
N         4.29800513906567    2.96667569766887    9.76928265992755
O         2.79583665354996    4.90640437630014    7.26429561061863
N         3.11107346484761    4.23420965480292    8.29365824475846
C         3.39083073671104    1.76017645496427   12.31812472039452
C         2.75103104895517    1.23011925057687   13.55094991706041
C         3.56504975742558    0.91313139074044   14.63736553661677
C         3.01964431554401    0.41779787157236   15.80584787549054
C         1.65253891148476    0.21624182954994   15.90139510307278
C         0.83715188140663    0.50623633407068   14.81964873597629
C         1.37917826991685    1.01090619165838   13.65191414078129
C         2.66353428523733    2.63108345531013   11.50935686357313
C         3.11098820683263    3.14893344983861   10.29738897633151
C         2.22380335115018    4.00057211253237    9.41454878145263
C         0.96662526967628    3.26416643915239    8.93912590921692
C         1.85484209947973    5.33784635426847   10.06674315455177
C         4.38232373955798    3.54951721042337    8.45183000300006
C         5.53503157563492    4.54989850343365    8.34962560048564
C         4.52080779503759    2.45750851467031    7.38381736891581
H         1.67258640843365    2.91238248773224   11.82404237360375
H         4.62978186335404    1.06502910647205   14.54721962986287
H         3.66084081174968    0.18439260629972   16.64304046852178
H         1.22373686809308   -0.17396095820011   16.81250912634190
H        -0.22714299023368    0.33352930136284   14.88555403314938
H         0.73534876449251    1.20627396886994   12.80793501822096
H         0.52093293328386    3.82894829083849    8.12304016847445
H         1.22192643402878    2.26965023231051    8.57991305147951
H         0.24747526657059    3.17337629267959    9.74799127775945
H         1.15354952458191    5.18530694281689   10.88198506017602
H         2.74469766362791    5.82946840549168   10.45432121418861
H         1.40034932638216    5.97941860763039    9.31516625169517
H         5.50453689717704    5.02586486712644    7.37294295501259
H         6.48158643131345    4.03110851523858    8.47792429188108
H         5.43374923347482    5.31423913503573    9.11675657406080
H         4.46361421927925    2.91347618492377    6.39879529088151
H         3.71639433095851    1.73298199666234    7.48879798133514
H         5.47006632536412    1.94358315074040    7.50244993801048

