38
CSD_code = LACGAA | q = 0 | S = 0 | Stoichiometry = C10H16N8O3Zn | MND = 5
Zn        7.45641785334119    1.55621522258659    2.85404401316886
O        10.94008612497463    2.20387936252787    6.42032895087925
O         8.02988633880009   -0.70315707336967    2.63289349021664
H         7.91641224504360   -1.19702219759866    3.44948324637480
H         7.53304845508191   -1.14690611225196    1.94035003444131
O         3.81028124556471    2.21094117243720   -0.57707432788849
N         8.09390044754542    1.22001971847747    4.70131205563288
N         9.29728859482350    1.86352243443811    4.81594677147369
N         6.75536585912929    1.30600222071186    1.01515005801606
N         9.08589708935672    2.65427598234908    2.68917552797830
H         9.51725851897196    3.19428651316150    1.95176771959618
N         5.46909345528858    1.77964494784634    0.98653140957451
N        10.99042544719514    3.15013896373585    3.99371824784125
H        11.36770203950828    3.01293939794608    4.94385442157585
H        11.41419359414377    3.75289105430801    3.31282856427066
N         5.61588979851736    2.26670790738173    3.20147729966498
H         5.14473892914489    2.64441585834370    4.01167891115081
N         3.62670234203284    2.68006449435826    1.98989514093038
H         3.27784278475087    2.68530170211651    1.01955837632962
H         3.17380552410643    3.18943039357174    2.72706092555832
C         9.79702495411454    2.58631027080250    3.77866737046681
C         6.64129716120672   -0.15005957500535    6.12330730541526
H         5.99902894972571   -0.10296404816339    5.24603203771804
H         6.10055911791067    0.24240079567765    6.98224078003143
H         6.89211273200476   -1.18860027325521    6.33687603393884
C         4.89690720824995    2.27296731727134    2.11657700597950
C         7.87644574174072    0.64815490777099    5.88793641239497
C         8.40512666551033    0.47684926293449   -0.59641421035225
H         9.00374611515908    0.38317902556667    0.30642279303790
H         8.91136090405143    1.13964164905053   -1.29552600653963
H         8.30801378737854   -0.49708956793765   -1.07367701730700
C         8.90708927642549    0.90301337693319    6.77519943402101
H         8.98669713343004    0.56889873914002    7.78855675209214
C         7.06474405288226    1.02465582872130   -0.25399951832499
C         9.85539508113774    1.69999534650558    6.10411828905780
C         6.01188238468593    1.30069191667767   -1.10847524623717
H         5.98945127196632    1.16973995601967   -2.17021402747044
C         4.95268077509820    1.80732310821197   -0.33000902470787

