86
CSD_code = LACMIO | q = 0 | S = 0 | Stoichiometry = C44H33NO5P2Ru | MND = 6
Ru        2.82758002167381    2.16307578943194    3.84790765026953
C         6.09952852655464    2.96039249592481    3.19400185544310
C         6.39256664723910    2.86742695697604    1.83614612078640
H         6.13476485021803    1.96943319409791    1.29178110853800
C         7.00195837334431    3.92633067464208    1.18765834256516
H         7.22015641069769    3.85240098655655    0.13329626489362
C         7.31336148878066    5.08209830776212    1.88457153072927
H         7.78290530392203    5.91016846154564    1.37470036890172
C         7.01741140964951    5.18166674088699    3.23530528721339
H         7.25479322082771    6.08477361780871    3.77866890588917
C         6.40505992558812    4.12996708792580    3.89005909298221
H         6.15576054899528    4.21173609521558    4.94117443303414
C         5.78081607675028    1.51122348132231    5.66695664600298
C         7.09829481659392    1.83395447482372    5.98107225197651
H         7.75468696065629    2.24081771963305    5.22306533803291
C         7.56364416013764    1.64311315025341    7.26956577725296
H         8.58455158228579    1.89950905248364    7.51318467406019
C         6.72445757039190    1.12953372373313    8.24509208285428
H         7.09166366064893    0.99124344471019    9.25122937184866
C         5.41592589011544    0.79892809764816    7.93242654079702
H         4.76150320298579    0.40199768134818    8.69369374220940
C         4.94355919684704    0.98554420169355    6.64651092286257
H         3.91749965311793    0.74686954934593    6.39224496152775
C         5.63002740136695    0.14506901671200    3.17454595797551
C         4.83324873695279   -0.38208097531582    2.16207425741312
H         3.91609214689826    0.12454868137266    1.88750140341901
C         5.22435842310805   -1.53432693951045    1.50389142165793
H         4.60590424408801   -1.93893438758603    0.71664473061904
C         6.40512905380828   -2.16794512599975    1.85458617706732
H         6.70799390116411   -3.06961048068963    1.34308423395667
C         7.19827956853388   -1.64644724260236    2.86398252661767
H         8.11833101916291   -2.14099573333033    3.13915020814172
C         6.81613601288409   -0.49294977788064    3.52425605335376
H         7.43373079296753   -0.09336615483390    4.31583804618006
C        -0.42740315612395    1.51646120744229    2.70919511972887
C        -1.80038133530893    1.41596150582348    2.90976049179655
H        -2.29244897280050    2.05771882673891    3.62655482051322
C        -2.53395363255065    0.48418051493322    2.19768978184206
H        -3.59929482847152    0.40608421033833    2.35823399071148
C        -1.90697315439339   -0.34769858020042    1.28441077548906
H        -2.48448105350951   -1.07477899944826    0.73290186192376
C        -0.54008374270547   -0.24874468525656    1.08149836461342
H        -0.05021571766676   -0.89619215854939    0.36957532772077
C         0.20136928048372    0.67723105204503    1.79272440880831
H         1.26973530138961    0.76462747194438    1.63591982216566
C        -0.35456506067975    3.01497229899319    5.12940096848859
C        -1.42552831405754    3.90197848878411    5.20158898976914
H        -1.70871647217858    4.48407562654909    4.33447999310054
C        -2.12185096677927    4.04220548069471    6.38835802095583
H        -2.94874545199323    4.73530730270674    6.44495196580742
C        -1.75920128922302    3.30052393870324    7.50122186388097
H        -2.30075132123575    3.42234111024260    8.42759128441692
C        -0.70261970628430    2.40749958958988    7.42753695603344
H        -0.41974237656494    1.83116353136033    8.29532908237468
C        -0.00243691484702    2.26012025544088    6.24437365714665
H         0.83590029234857    1.57668491977986    6.17701334375463
C         0.39546294677184    4.25314594141863    2.63493016093784
C         0.53108292533605    5.49048260948172    3.26457467151985
H         0.61963268358606    5.53901802274472    4.34325206877674
C         0.55981441375237    6.64827169854478    2.51072293119682
H         0.66257946515515    7.60472071506303    3.00259695818822
C         0.47041778124332    6.58066189437433    1.12888282041220
H         0.50399583474444    7.48710952171881    0.54295798909698
C         0.34504085463875    5.35334501241742    0.49949711942006
H         0.28825092677529    5.29819096324051   -0.57679425505737
C         0.31109606082097    4.18990807520999    1.24684458158074
H         0.22730256151442    3.22963520872846    0.75718965539009
C         3.13278343136846    4.19058666370239    5.89271771707989
C         3.39602268111072    4.85220888757711    4.53852200607425
C         3.72333878670640    6.18634735165495    4.34411305780969
H         3.79957552173378    6.83208555480454    5.20496455104268
C         3.94107002775410    6.63658163981551    3.04996758503816
H         4.19836706496805    7.66926460107064    2.86783814700557
C         3.82585297933172    5.74726148296002    1.99150389556367
H         3.98423532200222    6.04001969990985    0.96597822373602
C         3.49373168807626    4.42933540476820    2.26488800298921
C         3.32579615561368    3.33040588785185    1.22199301347050
C         2.38069611152069    0.39791712916101    4.17889001112481
N         3.28906729632483    4.01557049786508    3.51177246345664
O         2.85544954685955    2.94687467507556    5.82893350998635
O         3.20106476694549    4.85101764292912    6.91441478629095
O         3.01378844724589    2.18758898663733    1.70410432040463
O         3.48664996196528    3.57628407046188    0.04005777502970
O         2.09720981151572   -0.69576020317356    4.38381266868335
P         5.09479438520987    1.67895542512360    3.99591518273096
P         0.58853735347293    2.73147616335234    3.60627920268601

