57
CSD_code = LACMEK | q = 0 | S = 0 | Stoichiometry = C27H21N4OPRuS2 | MND = 6
Ru        1.02995382516867   -1.74736670168920  -13.83264452403214
S         2.30339747300883   -3.14678132269051  -15.41532622947644
S        -0.47954193752344    0.14001292977806  -13.27922998945924
P        -0.34701399985232   -3.20396052589728  -12.70654537391519
O         3.17120513540769   -1.69626522673008  -11.74293181338787
N         2.16427637872890   -0.62274012182175  -15.09187824356705
N         3.35368168205356   -1.28584920280067  -17.03479662991836
N        -0.41595714841888   -1.48341537311063  -15.25186024230189
N        -2.13370773558967    0.15273161873136  -15.37015309074977
C        -2.04111729757714   -3.16661535459194  -13.36123686128806
C        -2.97945156926440   -2.29447074092068  -12.81656151565490
H        -2.73342891098057   -1.73456657972926  -11.92418959826314
C        -4.21058168785782   -2.13697077551257  -13.42717242514189
H        -4.93400271544513   -1.45502644131183  -13.00623758887941
C        -4.50895688822421   -2.83942429220490  -14.58321779893449
H        -5.46868613433258   -2.70981077746433  -15.06119208719501
C        -3.57333040891588   -3.70084982263684  -15.13483519260621
H        -3.80301157997849   -4.24118418287094  -16.04201876425785
C        -2.33818107317220   -3.85787533876258  -14.53447568593226
H        -1.59215075998452   -4.51104476509568  -14.97010482969325
C        -0.60539825865472   -2.93746789658323  -10.92262605675812
C        -0.10938937030820   -1.78523787345243  -10.32311950841402
H         0.41931590637966   -1.05635850612691  -10.92658987833145
C        -0.30604765322495   -1.56885416841691   -8.97045295637679
H         0.07935674415726   -0.67181122985963   -8.50959075274132
C        -0.99503070298714   -2.49995830210289   -8.21170197923204
H        -1.14625777736522   -2.33197919090012   -7.15565481674355
C        -1.49184775954901   -3.64920439791129   -8.80687523639710
H        -2.02998285156399   -4.37529599463752   -8.21515977733294
C        -1.29949158593734   -3.87088345096165  -10.15735760993723
H        -1.68327065147619   -4.76906990029834  -10.61923937049135
C         0.12532119659398   -4.95884220562755  -12.75339452458266
C         1.48928067050709   -5.23565875364822  -12.73945093251532
H         2.19341262006445   -4.41092508127148  -12.75481337784063
C         1.93319369229652   -6.54460144978618  -12.72572991634501
H         2.99219627763499   -6.75389891120157  -12.72095161212128
C         1.01813491750773   -7.58506042131651  -12.72607607405013
H         1.36266110360694   -8.60856191654960  -12.72119146506616
C        -0.34037801148379   -7.31424358799896  -12.73923828132957
H        -1.05372482381631   -8.12578512820602  -12.74282687521300
C        -0.79116516303971   -6.00632102216832  -12.75042671412911
H        -1.85340334266931   -5.80286407620098  -12.77156353711636
C         2.66955305124049   -1.56283395925593  -15.93453889588389
C         2.37456599369185    0.65218589887006  -15.37024803188092
H         1.95418909102084    1.38091030921142  -14.68493135996034
C         3.10325673991474    1.01836277842157  -16.49354270879912
H         3.28873403896718    2.05299015047474  -16.72486310940051
C         3.56996503126915   -0.01297122131450  -17.30317602278004
H         4.13469373449514    0.18362625648739  -18.20484740720049
C        -1.09907248808391   -0.41512080643265  -14.76551069397361
C        -0.78502045597711   -1.97407204009778  -16.42380039412241
H        -0.21571810098007   -2.81620074355465  -16.80412711607602
C        -1.85071220162063   -1.42830865780355  -17.12254784112842
H        -2.15354213138928   -1.82436989074656  -18.07631632354385
C        -2.50594086756194   -0.35491184911476  -16.52717410210517
H        -3.35611267034575    0.12357528303301  -16.99505698555333
C         2.33048141149726   -1.74130504558300  -12.52197926986828

