125
CSD_code = LACMIN | q = 0 | S = 0 | Stoichiometry = C43H74N3O2Si2Y | MND = 5
Y         9.48396241606826    6.00325595560608    4.10600152285532
Si        8.88383662051238    2.39681260465219    4.70835401383511
Si        9.71639577455205    6.69585084532654    7.76318874570336
O         6.73136652965084    6.41525610245791    4.47836877614263
O        12.08574643740712    5.15286194286410    4.42574987835259
N        10.10266409527011    7.07500390078648    2.39885127473925
N         8.98472076251076    8.32366557601310    0.66543987997697
N        11.13723546157551    7.85463795293432    0.41450735274751
C        10.06347432488692    7.67902382279823    1.31684696099239
C         9.40562173261160    8.81681404414079   -0.55953035413666
H         8.73284274209899    9.34210265904734   -1.20885301575585
C        10.71017447243030    8.53675465210531   -0.70819659498161
H        11.38414706825858    8.77812282566860   -1.50611846377536
C         7.67688891299465    8.49238458556030    1.15761380170420
C         7.43387959099731    9.44292448917168    2.15862200520949
C         6.12019033815570    9.67198665724509    2.54256721498743
H         5.89769152544409   10.42868991404709    3.27920389863654
C         5.07972177568363    8.95569637301442    1.97842760447998
H         4.06214510285654    9.14995406373676    2.28763929436014
C         5.33754434173557    7.98653883662747    1.02706864962392
H         4.51603967682171    7.42350386769333    0.61152231970268
C         6.63345351394021    7.74538710787961    0.59485439083526
C         8.58699086284335   10.22810971280370    2.74300775243631
H         9.44549761154673    9.55184854447810    2.81079588988079
C         8.31152156169730   10.75642471908815    4.14961932504057
H         7.95133777530919    9.95713913365387    4.79337263841353
H         7.57993661496166   11.56198601153289    4.13786957532646
H         9.23192981883568   11.14897321360253    4.57645527065383
C         8.94513329008114   11.39198075583950    1.81147064093037
H         9.77856574772527   11.95805177769764    2.22234170525448
H         8.09349816223884   12.06148391537218    1.70099895582347
H         9.22797189708751   11.03119683376672    0.82562303564692
C         6.94315511631545    6.66306980776528   -0.41386560288515
H         7.85618399048642    6.93968796520685   -0.94926594603348
C         7.22011408464552    5.36021125357648    0.34317959368894
H         7.53891710812374    4.58066810450426   -0.34547771241791
H         6.32019048894253    5.02311752695493    0.85492396410776
H         8.00431282487091    5.51660545053425    1.08620729083896
C         5.84100004115571    6.46176383152379   -1.45318172718191
H         5.55607859989916    7.41125647205061   -1.90153334894943
H         4.95809029022064    6.00439864110038   -1.01310974005758
H         6.19767315015016    5.80254511934044   -2.24184201905605
C        12.45012974769889    7.42396197436272    0.67957582083143
C        13.25418306538760    8.17553472947772    1.54236681134733
C        14.51994549624722    7.69645567529400    1.85257894126737
H        15.15326632190171    8.25115494642184    2.52899520354306
C        14.98526382360756    6.51866572251312    1.30024743024902
H        15.97332918315204    6.15887349635710    1.54994970991666
C        14.19177135255684    5.79957538263105    0.42365275803721
H        14.57139080866962    4.88296991552591   -0.00045637764769
C        12.91534878473781    6.23696888267986    0.10026238766410
C        12.75875627770826    9.48098216294169    2.11784235841718
H        11.82009743181208    9.74129035856733    1.62074435290219
C        13.75081379856618   10.61790773654306    1.86362421223696
H        13.32013256053768   11.56391648242477    2.18514210594488
H        13.98590906413738   10.68889364460566    0.80358677214153
H        14.67732458762432   10.46535144171889    2.41149958142957
C        12.46934581935182    9.32462283240384    3.61144650341728
H        12.04434367423685   10.24293795139852    4.01147582513710
H        13.38203625912009    9.10212934023330    4.16124138866676
H        11.75695732149677    8.51115694077538    3.76055290006716
C        12.00606421362533    5.43917492399997   -0.80554398374716
H        11.28799466790888    6.12873293377158   -1.25978222030598
C        11.21914548434661    4.43141494055014    0.03872099024303
H        10.47407673633355    3.92688145528968   -0.57267336883503
H        10.71555047374656    4.94126652379637    0.86044630712064
H        11.89019406075546    3.68214068899848    0.45482034529515
C        12.75153039011307    4.73340346489083   -1.93777851433811
H        12.03670266715375    4.32715135162966   -2.65028241522482
H        13.35259728301150    3.90845958550454   -1.56330433363819
H        13.40269874884005    5.42955437050601   -2.46226702088706
C         8.95579456201830    3.74199182459770    3.40241303924965
H         7.98867200427172    3.75413858256805    2.88147271371492
H         9.68237774419602    3.44233355745684    2.63468513954288
C         7.80444110672540    2.98881799519643    6.17869308721372
H         8.06547551796423    2.48334321368019    7.10281752327626
H         6.75217900655645    2.79469083545931    5.99103314669709
H         7.92637684329083    4.05758703781641    6.34060611559574
C        10.63387552190786    1.93575500933120    5.33998709098588
H        10.58435273051044    1.36279448750578    6.26076101103511
H        11.23245639190748    2.81973673462920    5.53325279419560
H        11.16214893328377    1.33058689106437    4.60893886482033
C         8.10163141963975    0.73610101600487    4.13173270669825
H         8.06012598675053    0.00608363637296    4.93476907133315
H         8.66973617615004    0.29500598702628    3.31817589748592
H         7.08688182230422    0.88493963640950    3.77388290141125
C         9.81954185840789    7.42745011798351    6.03859594385816
H        10.82669159310094    7.85288165957139    5.92090291225780
H         9.14358763191876    8.29124788486631    5.98309172405147
C        10.48380854193644    7.78142414313806    9.15394109389609
H        10.43437064281416    7.29437987905236   10.12341695486588
H         9.96905290800791    8.73372890857556    9.24014028434600
H        11.52880598397897    7.99630580236312    8.94972704407911
C         7.90168018336585    6.40753387781727    8.31495438928655
H         7.86164662973073    5.86798393012445    9.25628851053159
H         7.34596656411901    5.82944304970555    7.58407214958537
H         7.38168055861954    7.35022770116724    8.46032310402811
C        10.65041404922120    5.02206835979611    7.82723746883491
H        10.19438052263896    4.33307760443308    8.53113109185694
H        11.68348306093833    5.15841405541434    8.13456827451155
H        10.65082586347309    4.54315013993404    6.85007910164832
C         5.66444883003628    5.63620440216420    3.95488511967163
H         6.07653874711681    4.68754984560308    3.61183510011472
H         5.19872232046708    6.17091760487557    3.11455435254940
C         4.68160058161497    5.48848562600794    5.11719754648258
H         3.66672990132436    5.29982288576386    4.77553348038326
H         4.99495068583663    4.66670179124151    5.75986634902294
C         4.82407971640267    6.82915864507438    5.85066125932719
H         3.97202980524377    7.48014814700510    5.66189176468219
H         4.91338239717803    6.68513189338074    6.92535758019078
C         6.11030638228491    7.43529352947835    5.25834484206500
H         5.87206080447346    8.28558897755308    4.60743313777197
H         6.82529066545720    7.74463173806486    6.02038938734425
C        12.71759787397065    4.32864914402247    3.44945996394047
H        12.91295152748894    4.92377668531708    2.54910046961928
H        12.02919038828250    3.51722119276092    3.21275638045030
C        14.03996576581808    3.84257739562923    4.07328050323519
H        13.98775458992467    2.78943100166775    4.34192461162933
H        14.86331499554602    3.98006888329102    3.37470064037777
C        14.20135178005945    4.72675020564104    5.31855815977127
H        15.20317663695367    5.13783170976941    5.41684657704931
H        13.96274680021232    4.16470752151317    6.22091402626581
C        13.15051262634529    5.81616485707188    5.09188991706960
H        12.75636387317623    6.24865637052752    6.01120459239109
H        13.55332758707589    6.60682896195135    4.44391991865903

