106
CSD_code = LACNOU | q = 0 | S = 0 | Stoichiometry = C41H59ClN3OSc | MND = 8
Sc        2.10515842105544    5.23825024061386   12.06073092644823
O         3.12980760655330    3.63969540735097   10.89676745724273
Cl        3.43553883098370    4.67191512894699   13.85964177771178
N         2.82899853564255    6.79063803168005   11.17370457851923
N         4.67461226676222    7.95119909049726   10.22266219174355
N         3.25608329377876    9.13212083621007   11.43985375282460
C         3.50979518470764    7.82560930899022   10.99454545574500
C         5.06911467518203    9.27586136932506   10.18250710711498
H         5.93854254066203    9.58258263989483    9.63567817277831
C         4.20670306655754    9.99205676749448   10.92149523845337
H         4.18954978776246   11.03983726187660   11.14447062477421
C         5.34224602415078    6.92243395037690    9.52491732289069
C         6.20294536613762    6.06441764383273   10.22017500954518
C         6.93457748041634    5.14003136352866    9.48619555902867
H         7.63721498388838    4.49202253134234    9.98587518638448
C         6.78572241833443    5.04437972166087    8.11454648765894
H         7.36857175854007    4.32366454808033    7.55938723175419
C         5.88450282899592    5.85570590668649    7.45060625148010
H         5.76091822551626    5.74486639201361    6.38538160162584
C         5.15321382839757    6.81180824087668    8.14130730744302
C         6.32145782869170    6.16998220060268   11.72330478469098
H         5.31717594411544    6.37090798804721   12.11908768733796
C         6.81319006989220    4.88226249307884   12.38114505612995
H         7.87826863163207    4.72971970324150   12.21569177064656
H         6.26553458856789    4.02404054192170   11.99978390884138
H         6.63567168417536    4.93673268240513   13.45203055782162
C         7.24781730492457    7.32946699830704   12.10451607803416
H         6.86687674182050    8.27806732020360   11.73550755998713
H         8.24037507954598    7.16923452550235   11.68582709462402
H         7.33398397425315    7.39215921413173   13.18656444578526
C         4.11485061771946    7.67401814060769    7.45978281221166
H         4.08507941922314    8.64421955969548    7.96591735316338
C         4.40636915080237    7.93385913454548    5.98299180313984
H         4.26970790254170    7.03393365227258    5.38820280620868
H         5.42423891383185    8.29317443550543    5.84805719525301
H         3.72227311084876    8.68988634007839    5.60349509665654
C         2.74204637800468    7.00993834778216    7.62809323555550
H         2.52092891451307    6.84177122733221    8.68265607080004
H         2.72507629529818    6.04981423939696    7.11467574021817
H         1.96432341570968    7.64206280741940    7.20475864312119
C         2.15661498930042    9.56959233196388   12.20887281239376
C         2.09390649738304    9.25051738350268   13.57263825027626
C         1.04773934768677    9.77180578205845   14.32010976889237
H         0.98360756662066    9.56093609504161   15.37547034452060
C         0.08465976945811   10.57461807604680   13.73562375546934
H        -0.71803717698422   10.97684669211480   14.33634181614103
C         0.14492428729259   10.85877861320212   12.38639121000235
H        -0.61942114985071   11.47640745726561   11.93955575257789
C         1.17637476167557   10.36165876985820   11.60035008513773
C         3.17852856867455    8.40572914713651   14.20238241429396
H         3.42357353852645    7.59578970656523   13.49973016074510
C         2.75556431931804    7.74144094508557   15.51068039456873
H         1.80078219820027    7.23570131902858   15.38800554784879
H         2.68233938192803    8.46362706564923   16.32184806974911
H         3.49383404002426    6.99180720996330   15.78502747077757
C         4.43250929489618    9.25623683259652   14.43571829549745
H         5.21311023467707    8.64622723517311   14.88401058594921
H         4.20459590127270   10.08002022870978   15.11066229431295
H         4.81145838521989    9.66909924550918   13.50424230195094
C         1.21233669167448   10.67711932643702   10.12135024398365
H         2.08079883961110   10.18729649526243    9.67234239724668
C         1.34457482495476   12.18437442021318    9.88964141683882
H         0.47321399671125   12.71308853348862   10.26769759299713
H         1.43765971529347   12.39413343859739    8.82606101552878
H         2.22504396014041   12.57452949988262   10.39562128001545
C        -0.03289411804941   10.13075256378514    9.41967842985178
H         0.01617357267416   10.34320392753204    8.35346837832919
H        -0.93922416112965   10.58005186185468    9.81746284545292
H        -0.09689411014105    9.05301009478105    9.55268390669582
C         0.04200755237616    4.94400812848704   13.33104730076084
C        -0.20796141641527    5.86849093640336   12.27641468561099
C        -0.12835689097747    5.15011576207476   11.04380872205446
C         0.16194024126314    3.79176479035976   11.33856039923929
C         0.27753627739534    3.66772030606246   12.74923358016581
C        -0.14748728338317    5.16372510506555   14.80787234354713
H        -1.00170837866283    4.58132037352060   15.16260560258519
H        -0.34303918724949    6.21176714970246   15.02774541137416
H         0.72934269362145    4.84417352233206   15.37395387568400
C        -0.75983443818070    7.26166272590375   12.41050895074100
H        -0.58380168104516    7.66648800789925   13.40475100459454
H        -1.83860951367800    7.25400774830375   12.23298196182157
H        -0.30640722113641    7.94142292406734   11.69085669063583
C        -0.51240349254559    5.71509315832382    9.70535066862420
H        -1.60014780490400    5.77159065448954    9.61361228004761
H        -0.13839833605662    5.09892175847560    8.88959584706086
H        -0.11318379423920    6.72075847297559    9.57936011609972
C         0.07154355315298    2.64747726489493   10.36384291740199
H         0.30242520058448    2.97034295960326    9.34944659163434
H        -0.94554381764397    2.24621830299469   10.35654695236066
H         0.74462253952730    1.83198752525469   10.62660506018949
C         0.40139026217460    2.39745113359415   13.54697162624268
H         0.52139360456159    1.53091714665101   12.89845659908933
H        -0.50110212875663    2.24399436924567   14.14341284965063
H         1.24685869174196    2.44242131732168   14.23694425443371
C         3.60882825270512    2.42068887697665   11.49727933761469
H         2.81561013188568    2.01097378067611   12.12817150470707
H         4.47040544698772    2.65751912020319   12.13353947007841
C         4.00640487669243    1.50454937687271   10.34656361543554
H         3.13879511284008    0.96310833176124    9.96637774328293
H         4.76911802264229    0.78732519942255   10.63914420625863
C         4.49482918152063    2.51459482117225    9.31323309110198
H         4.47947901099437    2.13128869722407    8.29597316124265
H         5.50520382728947    2.84627889099136    9.55125342228628
C         3.50655453842265    3.65893537182265    9.51092616484851
H         3.93337308346105    4.63830126321548    9.28073502295166
H         2.60400622583793    3.50434649399657    8.90460918908327

