134
CSD_code = LACNAG | q = 0 | S = 0 | Stoichiometry = C43H80N5OSi4Y | MND = 4
Y         3.27308291427470    3.83682939418737    3.43308767059973
Si        4.92625000882248    4.01584673316938    0.37138402701168
Si        6.25561378437946    5.29214470567347    2.78509345441152
Si        1.28858956964180    5.26979102418132    5.90170163455179
Si        2.13626507422001    7.12297263645536    3.70366007476516
N         3.26463928322907    1.86626291247567    4.08809339960491
N         2.56626224480228   -0.09906885510958    5.22698913164239
N         4.43193098985459    0.86929185191373    5.95010550921703
N         5.00073181735817    4.36729984336031    2.05523658128984
N         2.12295522151384    5.55745782231078    4.42513365409864
O         0.97442497468491    3.51260013099019    2.25682656123082
C         3.41895504647227    0.99601041561687    4.97154265080890
C         3.05845472072610   -0.83113165921291    6.29425959362115
H         2.56689523707503   -1.71943150907012    6.63466744384699
C         4.18985163850528   -0.25438408613774    6.72191732242416
H         4.86474986168537   -0.54870633665023    7.49982109893917
C         1.39559855915439   -0.45860811004303    4.52881050915529
C         0.16261915945882   -0.43798517909136    5.19596587548757
C        -0.96929933129931   -0.86925419906036    4.51680341009741
H        -1.92381040533488   -0.87464389229215    5.02019712499480
C        -0.89405893443650   -1.30017337567097    3.20829197629035
H        -1.78290663896285   -1.64249625709331    2.69866840464198
C         0.32363065125396   -1.30582190542610    2.55425442075035
H         0.36834087238673   -1.65727664308707    1.53660293467210
C         1.48188426342230   -0.89034043518742    3.19433647235208
C         2.82508313135693   -0.95931259608897    2.50319513677201
H         3.40102945809358   -0.07982118121676    2.80592498043361
C         2.73635817629572   -0.93759237800421    0.97776276493622
H         2.33512580519871   -1.87097054818714    0.58819154671278
H         3.73231226583356   -0.80431981291980    0.56137397156228
H         2.11513524936564   -0.11292895464116    0.63785899017960
C         3.55866047554975   -2.22698444861611    2.95778269869641
H         3.70689341325661   -2.23212886743764    4.03489837668412
H         4.53142864402751   -2.29195614351461    2.47576352671196
H         2.98088851771088   -3.10992737970659    2.68880025669688
C         0.03043831524520    0.01390639923922    6.63341009436735
H         0.98682679622206    0.42700947972225    6.96466842446159
C        -0.32296961244486   -1.17462912692401    7.53340061560848
H        -1.29376816264187   -1.58396254668605    7.26368673727325
H        -0.35959352463135   -0.85953997894379    8.57393400773219
H         0.41449513058051   -1.96835806001964    7.44104253455137
C        -1.02690717075840    1.11034507251065    6.78512955297793
H        -0.79994987154771    1.95625065741873    6.14208516760380
H        -1.04474010663145    1.46237257361521    7.81426808833785
H        -2.01901823578568    0.74169882179209    6.53729974552635
C         5.68446043956662    1.52732337263864    5.96646641682704
C         6.62861372774638    1.22726087510758    4.97554611480174
C         7.86968097276318    1.84551299682966    5.02868827537198
H         8.60880381306893    1.62400101822495    4.27451710740657
C         8.18687382075759    2.71715404672121    6.05176234288387
H         9.15955340574033    3.18480734310845    6.08203967435863
C         7.26495505449391    2.97198842923382    7.04756011396306
H         7.52961777756936    3.63361547990882    7.85789722891191
C         6.00469932929329    2.38852981329663    7.02358863487110
C         5.03222409485342    2.66557336000559    8.14613979109660
H         4.07237348283397    2.20350292801117    7.89849700561354
C         4.80801732108788    4.16888812729288    8.32684277358719
H         5.69961655329064    4.65274713650501    8.71805329000269
H         3.99283753096887    4.34183893498226    9.02576870479716
H         4.55128406390676    4.63394958094208    7.37727301068685
C         5.53571057486501    2.04084020177649    9.45082611748636
H         5.66885600790469    0.96705582076093    9.33888897215191
H         4.81980572135174    2.21731996746308   10.25063452081483
H         6.49044898992451    2.47255755182068    9.74187288337413
C         6.34156373199289    0.20847755450460    3.89984798834549
H         5.35437924913867   -0.22159088603180    4.07682306199542
C         6.32715675871972    0.87273550403594    2.52380265066757
H         5.63322342532197    1.71636619189120    2.51986114397267
H         6.01765919389360    0.15594531854793    1.76584696735075
H         7.31688917457690    1.24045492337533    2.26510366030380
C         7.35710100141141   -0.93660348972443    3.95083277039724
H         8.36072429825144   -0.58450272182761    3.72735918632726
H         7.09425433104340   -1.69931387093685    3.22100818897674
H         7.36596487126405   -1.39423130588745    4.93805506621579
C         0.41103726992389    2.20464411064959    2.15736746391864
H         1.05637120238317    1.52118114589214    2.71229584373643
H         0.35852307579204    1.90167358671552    1.10085557131508
C        -0.98868419613955    2.34519643281433    2.73919210510475
H        -0.92795376732012    2.38007580690457    3.82638766787825
H        -1.64728254560986    1.53115027120913    2.44820277599573
C        -1.41554985806292    3.70158260855362    2.17511370419224
H        -2.09353615604502    4.23238853393735    2.83946651137155
H        -1.91046942313749    3.57340153226401    1.21227281622949
C        -0.08214603657500    4.44989978845220    2.00337505984695
H         0.02235705838295    4.84228780871982    0.98386089572582
H         0.03937303932091    5.26562388941306    2.71856454534245
C         4.70317895698994    5.52509744914709   -0.79251175367121
H         3.79283772544597    6.07879571707241   -0.59209426909372
H         4.67574878003892    5.21362671257106   -1.83232585176516
H         5.53399010629623    6.21270426981780   -0.67970101088794
C         6.43518099507353    3.09710062489246   -0.37029936675077
H         7.33943104664657    3.67698070113103   -0.22776394549417
H         6.30857548074389    2.94776477008253   -1.43818887417603
H         6.59277595098344    2.12572758819382    0.08187855384278
C         3.39310008283082    2.87654681100570    0.16021301524199
H         3.28278088240972    2.21773135819302    1.02581849357856
H         3.47878019044333    2.25046908143526   -0.72260763227191
H         2.48433687345644    3.46414536996058    0.05339494052834
C         8.02228352365584    4.57472504797943    2.60030272692644
H         8.03164536165594    3.50479183941687    2.76625710904011
H         8.70735135509763    5.02641858428645    3.31063939131165
H         8.41323152135516    4.75994275003908    1.60604579254197
C         6.39694011597926    7.10646034084068    2.18467586120207
H         6.89870495990772    7.14646835996929    1.22347245852548
H         6.97122136750210    7.71525128067060    2.87634039238129
H         5.42317467914334    7.56676274556374    2.06443440309819
C         5.83828809269623    5.26638880666687    4.66028222668472
H         6.59465812003608    5.77609538530085    5.25087986008679
H         4.88246726963255    5.75455939389620    4.86371605179473
H         5.79817064555028    4.23373147875673    5.01489743646353
C         1.73354354954394    6.48624632548171    7.31195430753993
H         2.80635357338843    6.57335129553105    7.44786146622927
H         1.30382586767916    6.17851980283286    8.25978395319540
H         1.35202255616039    7.47565008880409    7.08507451227187
C        -0.63072240393036    5.29032629620319    5.79161662851304
H        -0.99939019136533    6.27846633233391    5.54288673188923
H        -1.07668769891505    5.00511817080895    6.73984762968408
H        -0.99929020336872    4.60207323342569    5.03788089919010
C         1.73615875436350    3.49841955864502    6.46102926549340
H         1.31433295520688    2.76424172861085    5.77854572677567
H         1.36202624497074    3.28136596940603    7.45684915709888
H         2.81472594241982    3.36102643031272    6.47176616642464
C         2.45702445202905    6.89055751496397    1.83026418823130
H         2.90034315612804    5.91167819765084    1.63854766628115
H         3.14282572616467    7.64171545442970    1.45383786880375
H         1.54312232628604    6.97085732841173    1.24948113694392
C         3.44696637652414    8.31998117139532    4.43027011961331
H         3.31871748497485    8.42267627097350    5.50291167573513
H         3.34942414244657    9.30977221298946    3.99410057791439
H         4.46144233638909    7.98172001619920    4.25046898407996
C         0.48892585229786    8.09422975430016    3.84532790505858
H        -0.35919190022392    7.53779677468981    3.45902460391560
H         0.54301569804083    9.02851783884871    3.29546665639765
H         0.27786366164211    8.33746003911523    4.88055938504890

