91
CSD_code = LACPEM | q = 0 | S = 0 | Stoichiometry = C30H53N3O2Si2Zn | MND = 4
Zn        0.48600230880084    7.63290231507493   15.57645940531340
Si        0.24022834589820    9.75101036882237   17.57370025964402
Si       -2.11527614120135    9.70160999600708   15.70746883990955
N        -0.45809291948050    5.70929543678399   15.50897400015938
N         0.78640666469753    7.28873797934608   13.39493351791164
N        -0.55351052174027    9.12413495139302   16.15426603084398
O         2.06051836283693    7.03329420461216   16.30639849306626
O        -3.45225498493877    5.38818652048066   13.70348304423996
C         2.56612570257527    5.81861017918941   16.20682320772578
C         3.97113631323418    5.60515658172624   16.14814142151180
C         4.43493529140924    4.31907086552985   15.94208349555830
H         5.49472713360054    4.13618786806648   15.86665740839391
C         3.59464827472288    3.21637054557340   15.82731753914388
C         2.23756387684531    3.41831802386455   15.98225114122221
H         1.56076916949819    2.57293915118748   15.95637951226974
C         1.72127353927755    4.69021935487516   16.18389260386198
C         0.25005860043100    4.84091361795660   16.46520251429747
H         0.12904924874318    5.29388241281237   17.45534114978610
H        -0.21066795517633    3.84344536010771   16.47621306485118
C        -0.30891654984851    5.19733652508776   14.14682503521210
H        -1.11297125632831    4.49870166824061   13.89340396267972
H         0.63566629385678    4.65074000234394   14.09998288116571
C        -0.28987484376765    6.33221225604707   13.12670804420101
H        -0.18513030829396    5.90604856244918   12.11712012960200
H        -1.23878992971495    6.86529761695399   13.17805250897061
C        -1.86571966542690    5.88648840380088   15.91119701735135
H        -2.29534798350823    6.66302978727481   15.28221504595032
H        -1.85794692989250    6.25868185162592   16.93808082339617
C        -2.73722504112092    4.65890138495292   15.82562800589395
C        -2.80913303755173    3.75176524852427   16.87134441722315
H        -2.23591118627564    3.93803727087344   17.76727479459240
C        -3.61318604010596    2.62651994004713   16.79591233744243
H        -3.64992788548049    1.93057038253963   17.61957920122303
C        -4.37259245280753    2.40889025928569   15.66287311414703
H        -5.00448871422605    1.53660979668456   15.58922200778028
C        -4.34290190216091    3.31434059840451   14.61536162995343
H        -4.95639078797215    3.13201440433074   13.74730583881252
C        -3.53290905855358    4.44068287327301   14.68795451945250
C         4.16663677134899    1.84997043218140   15.58417589279348
H         3.37450095882329    1.11394207132999   15.46776740733460
H         4.79847749926855    1.54596278091766   16.41862283527702
H         4.78086304929998    1.84484325357313   14.68398405305704
C         4.93230744435728    6.77000067247876   16.35765121688294
C         4.75672724102876    7.80579629593262   15.24092282829217
H         3.72868434971117    8.15375290179456   15.21774581912328
H         5.01039109740876    7.36531823798116   14.27754953957544
H         5.40974990872294    8.65907639162811   15.41450931638376
C         4.62227914287295    7.41368777787209   17.71593071771975
H         3.59320740301503    7.75581842006132   17.74180144547668
H         5.27959926102670    8.26339021333596   17.89015954819706
H         4.77030497160068    6.68909065326383   18.51444217170230
C         6.40329098308841    6.33937881229076   16.36796021267620
H         7.02683527616507    7.21087167394013   16.55938057602956
H         6.70221627582624    5.91951441964721   15.40974249363068
H         6.59461223558336    5.61127869263138   17.15271247718103
C         2.07614334499025    6.71883636575503   13.01316778375943
H         2.33015268398594    5.87438811048508   13.64831047530970
H         2.85087443026055    7.47030068398135   13.13818297985719
H         2.06493648621378    6.39244521478368   11.96488915711073
C         0.57361495184892    8.50991147156443   12.62130876423685
H         0.54532408559122    8.29705714418884   11.54469151332955
H         1.38357613255958    9.20839935775930   12.82155536320006
H        -0.35849529275771    8.97659316292690   12.92449196841749
C        -4.32300873516010    5.29844242241730   12.60269321981469
H        -4.11573498184383    4.41146920770280   11.99495283240633
H        -4.13607339960541    6.19163134173539   12.00810712083288
H        -5.37048908906792    5.28849409148010   12.91803453948653
C        -0.62779999618567   11.19606287984041   18.45735224010356
H        -0.54705020063985   12.11349334495747   17.88930407691074
H        -0.16571514714606   11.36856959824972   19.42347072519267
H        -1.67863887689229   10.99947283302355   18.62487653472866
C         1.96864269112639   10.38375800902062   17.06190296072123
H         2.50021856959808    9.61531832074951   16.51244816380896
H         2.56747958638384   10.64656110549750   17.92767359284562
H         1.89938849069873   11.26243954436410   16.42791627973208
C         0.39705520220447    8.35727010938794   18.87854551798011
H        -0.57561892025017    7.96982249870664   19.16903831822858
H         0.89205521263805    8.70944346772566   19.77794340022236
H         0.98358810550790    7.53525509441753   18.48279789100306
C        -3.44517876589139    9.17403345297525   16.98714282266265
H        -3.84587114842400    8.18644775654955   16.77649991334658
H        -4.28056712668466    9.86771406746038   16.99139863692495
H        -3.03134946377658    9.15090417593660   17.98928292751672
C        -2.82793314521455    9.11274563599962   14.02466006783263
H        -2.32413374328209    9.57029211836505   13.17938819249767
H        -3.86629462544288    9.42776792557434   13.97731106637550
H        -2.82308711587943    8.03857289722757   13.88199572620435
C        -2.12842943797671   11.60582334540487   15.51012712471815
H        -2.45856712550607   12.09518546103273   16.41850436344938
H        -2.79678398015537   11.91703950340359   14.71272346736337
H        -1.13775655580024   11.98149001230312   15.27822375578998

