106
CSD_code = LACPIQ | q = 0 | S = 0 | Stoichiometry = C35H63N3O2Si2Zn | MND = 4
Zn        2.10668837530196    8.20989931250202   12.60357220291126
Si        0.57666270516534   10.10383465327001   10.34667959803788
Si        2.92440910538647    8.30785278386989    9.78153345443515
C         4.11586376373524    6.88080524280122   14.08590557030232
C         4.61768200889943    5.62014946794289   14.50592240154803
C         5.22555915920046    5.53049167926409   15.74685596309501
H         5.58812866787221    4.57690348764154   16.09517125760289
C         5.40519499500438    6.62353619957055   16.58407478697325
C         5.00002695730688    7.86411243589895   16.12549641288843
H         5.18185535775285    8.74394671864994   16.73021236536566
C         4.37729542216530    8.00601018236235   14.89584553508941
C         4.53742617832683    4.41508087930210   13.57510797064159
C         3.07419488045463    4.07066947168775   13.27287414692237
H         3.02206388880108    3.23424346985646   12.57829330608013
H         2.57789583588714    4.92595305761130   12.82501745775742
H         2.55714444971682    3.79201232034571   14.19015736283138
C         5.26537891018470    4.77065497677039   12.27146895471504
H         6.31264914874176    4.98538824749331   12.47563963425834
H         4.81245185724946    5.64551925880275   11.81746623389472
H         5.20999576357011    3.94134873004780   11.56883525923729
C         5.20044532367854    3.16151682493547   14.15662904552259
H         4.70093617858709    2.83247260469423   15.06560027663875
H         6.25276837719326    3.33492998357251   14.36910300589291
H         5.13431809094566    2.35502048925011   13.42846363048062
C         6.04446900165352    6.47726401001000   17.93465662729525
H         6.44625693532992    5.47574515730570   18.06666572584150
H         5.31602613295708    6.66097379490032   18.72568972219408
H         6.85429597474515    7.19554700820122   18.05567234077266
C         4.06927698409457    9.39122609302975   14.39653996504940
H         4.43323119574739   10.11844038751006   15.13424143152391
H         4.60868587600940    9.56074249735475   13.45963201350563
C         2.44078506102298   10.97985958926298   13.55280700438587
H         1.38306510521615   11.08895357110327   13.31378859026767
H         2.99171847330507   10.98988539453818   12.61418171345630
C         2.86393364062716   12.10057674922533   14.46970730058324
C         4.18592508209051   12.55938174029790   14.50955248278638
C         4.62231795973580   13.38990427656746   15.55566291871083
C         3.65835431464143   13.87120039915466   16.43208294797103
H         3.94147677090904   14.53816920468755   17.22897827956396
C         2.31322542955832   13.54769436894200   16.32059403065099
C         1.93574201763318   12.62827155243280   15.35829758279039
H         0.89909725227811   12.32840390748683   15.28293307986492
C         4.88441310836513   12.81688364251519   12.27817462224359
H         5.63831054341977   12.40748868465249   11.60722289298403
H         5.03281791472804   13.89702905627927   12.37931127678619
H         3.89148749255475   12.64801545791152   11.85237546557759
C         6.10454952709929   13.67206315751033   15.78140197055399
C         6.35455387022697   14.49837277082641   17.04825631771103
H         7.42728021564238   14.61227401600010   17.19049242704422
H         5.95461604136568   14.00339360387849   17.93017104138670
H         5.92191144556193   15.49300636079941   16.96454226106856
C         6.72153815028407   14.43347033308907   14.60076878889478
H         6.10789673612541   15.29307313920365   14.33648955114511
H         6.82904889399187   13.78755575416420   13.73726806847397
H         7.71175224951960   14.79279646685563   14.87331660882440
C         6.81713246377680   12.32158678111789   15.95211054411708
H         7.88093157434173   12.48011997768986   16.11462949556904
H         6.68920935523360   11.70277263268169   15.06930873243953
H         6.41307767905892   11.78921989128777   16.81139933911087
C         1.31220861412923   14.13616635713971   17.26865288272376
H         0.30005849229186   14.00979001130845   16.89246174864063
H         1.50212074222137   15.19688486396248   17.41802127066456
H         1.37979025086277   13.64542151774311   18.24007590466072
C         1.83527162450770    9.37300628738930   15.31259258110043
H         1.72767932973403   10.27520083982952   15.92641751365808
H         2.36077332636067    8.62578652807109   15.91118663955415
C         0.45346240228978    8.83913438587587   14.94002925799821
H        -0.12004856300570    8.64843849532315   15.86029288535688
H        -0.07818435188665    9.59423159321986   14.35867838630323
C         0.91742018890030    6.48561546654079   14.95793073238093
H         1.92606488398983    6.60511350108305   15.34391224950460
H         0.89945370624351    5.58177548535334   14.35542398783581
H         0.22014971845296    6.36652269258642   15.79766682851926
C        -0.75764653803896    7.33874258684515   13.51611153331131
H        -1.53022059826581    7.18782469048272   14.28152270496059
H        -0.67935912848720    6.43715190281018   12.91212269714046
H        -1.04880411438035    8.15847688136479   12.86660572776535
C        -0.85214484782929   10.48362107067850   11.56746189395271
H        -1.61555945682651    9.71333988995363   11.53877762689729
H        -1.32866556603487   11.41253162483024   11.26975314071560
H        -0.53514634733936   10.60700039532149   12.59646388835047
C         1.42915838904930   11.80086741162900   10.04845182242524
H         1.43362058505106   12.42098407593051   10.94105186984514
H         0.91843129598909   12.36105743720537    9.27110188128795
H         2.45854819057452   11.66583226834802    9.73319738739956
C        -0.35532496873634    9.58266681997607    8.76006128292135
H         0.13748715465335    9.95392065581905    7.86973802675902
H        -1.37036429549394    9.96883910191527    8.75491657573555
H        -0.41122037796645    8.50250849843465    8.67787945120869
C         2.84121764561888    8.97905771452260    8.00192118089205
H         2.01398885343688    8.54662596154589    7.45466775335102
H         3.75180962700186    8.72577908779907    7.46972652862807
H         2.73210861736045   10.05551484089436    7.97511225009764
C         4.66557299600039    8.77695781033074   10.42701105199087
H         4.76621961989278    9.84933233206285   10.57112093200166
H         5.43965603175053    8.46589019823781    9.73249533869326
H         4.86333901991021    8.29007327881845   11.37515259337930
C         2.72962181725706    6.41134737953810    9.66783435612889
H         2.68611688268799    5.97924810455003   10.66129228288579
H         3.56362327485002    5.95659940994263    9.14358694527880
H         1.81922789441463    6.13731290341366    9.14335934211513
N         2.64048984521880    9.62992009170164   14.12003936812083
N         0.53938675953531    7.62517089988369   14.12539862566432
N         1.70871420541133    8.91838903302748   10.87351542447350
O         3.44601654677558    7.00914025429289   12.95512904502610
O         5.06683475183532   12.15357345589580   13.51512760747719

