68
CSD_code = LACQOX | q = 1 | S = 0 | Stoichiometry = C34H28ClN2P2Pd(1+) | MND = 4
C         2.31670528432685    3.85186926380719   14.56690206067974
H         2.51634446146936    3.64617776636429   15.61271524077647
C         1.40312053231989    4.81683192171811   14.16701529333761
H         0.87293268974398    5.39579809260572   14.90568879204218
C         1.18598934755267    5.01242656920653   12.81250654880122
H         0.47647931672476    5.75255721563957   12.47449218875342
C         1.88728238524588    4.24589923310832   11.89032866652331
H         1.72967705889929    4.37712291271178   10.83156275430758
C         2.79475625497139    3.30836185692968   12.35775099633784
C         4.77545177203129    3.16813205784172   10.35215864522538
C         4.10943352309174    3.78615546286753    9.29936808981929
H         3.06271698684252    3.58640102630241    9.12152457100968
C         4.80187042264608    4.65463925034471    8.47418672857658
H         4.29226902791082    5.13158971280720    7.65060357596773
C         6.14324275939246    4.91781300082500    8.70528714356819
H         6.67437605362736    5.59887388994061    8.05852735291675
C         6.80171098981902    4.31596339609681    9.76660123622964
H         7.84342787937150    4.53125903854125    9.94897931398009
C         6.11890717733850    3.44136915583838   10.59158551042300
H         6.61163673028442    2.95565282229592   11.42727081802055
C         2.71309963021455    0.97142799719924   10.81710277269917
C         2.48745751463830    0.78045809678868    9.45976434006216
H         3.05391360299964    1.33540221885866    8.72738543433801
C         1.53653377196907   -0.13642034569666    9.04372538817353
H         1.36001029859191   -0.28054682244348    7.98859423895260
C         0.81649016652396   -0.86886214562830    9.97265806045388
H         0.07774819740482   -1.58202718685191    9.64129639408326
C         1.04894257264791   -0.69268553788868   11.32877548163429
H         0.49575741227563   -1.27068135583930   12.05353575340611
C         1.99537826444104    0.22088785438509   11.75301715812521
H         2.18146341407589    0.34822658860332   12.83195856964765
C         5.89197382946318   -0.53761140922651   11.73610504453362
C         6.61473049307258   -1.65788983296155   11.33856720735838
H         6.89806027952738   -2.39947351766635   12.06977739236963
C         6.94771915076563   -1.80251157670688   10.00311525420486
H         7.50692559252221   -2.66191534044769    9.66627646582117
C         6.55148483967867   -0.81862458456092    9.10889981325714
H         6.79457027191835   -0.88531820737096    8.06098740244391
C         5.82967656406975    0.25924713879658    9.59124200094173
H         5.50417311681299    1.05232806778170    8.93242469146207
C         4.94738322579942   -1.87077878081733   14.09186105406059
C         5.24416870811400   -2.29021696789511   15.38548156869998
H         5.86173254004242   -1.67223118057904   16.02159633344822
C         4.72870044262847   -3.48742155157107   15.84853201383461
H         4.95847195425949   -3.81770543372828   16.84981679142670
C         3.90998194602229   -4.25483938710393   15.03502600102715
H         3.50735107109120   -5.18617526983218   15.40245120010054
C         3.59320258504185   -3.82415056238344   13.75525592731260
H         2.94268215275175   -4.41677550289325   13.12991333469854
C         4.10244963272419   -2.62981205742358   13.28219934041718
H         3.84784454701504   -2.27525742373276   12.29007052132579
C         7.09071682806928    0.15064305601435   14.23716185899261
C         7.30271352208007    1.49282948597584   14.55665934648959
H         6.50511403907300    2.23098060033563   14.37215092363937
C         8.49797864902494    1.88139880152888   15.13288251992399
H         8.66288746316825    2.91612442317687   15.39218459588030
C         9.48021444212782    0.93696526699960   15.39063717723421
H        10.40836809557881    1.23912663275741   15.85063723842619
C         9.27164483782074   -0.39549939516232   15.07064157384766
H        10.03650311933733   -1.12740582716649   15.28101514784511
C         8.08022893574863   -0.79437250756434   14.49129627896792
H         7.91021249431350   -1.83589713731412   14.25755275141208
Cl        3.97655820379411    0.94206052654574   15.86515560877701
N         2.98569569236120    3.13494668396467   13.67803621651850
N         5.50524744815573    0.39450549258906   10.86857685748625
P         3.95635009284749    2.08071368442389   11.53953321647350
P         5.48436272934311   -0.25403430365735   13.50663014219761
Pd        4.19259496442966    1.51647488954260   13.69188006822727

