56
CSD_code = LACSEN | q = 0 | S = 0 | Stoichiometry = C18H29CoN2O6 | MND = 6
Co        2.03738782096574    2.61199145952725    2.90988669655005
O         0.64504523060511    1.30000729092164    2.47509708656388
O         0.85346587685589    4.06066465596203    2.67133362753379
O         3.16382696126559    1.13921346216925    3.21156177934160
O         2.42418980637359    2.71524866417015    1.09369265588668
O         3.33561576216196    3.86021434167452    3.29656595608617
O         4.61296271622658    3.45637530914343    2.85245083991549
N         1.57918139130270    2.57449807851325    4.74359387946430
N         1.14616007774654    1.84464809713723    6.76445741068813
C        -0.47213463643464    1.57695475656011    1.96179871260737
C        -0.98418600328479    2.85946890573032    1.77668708206558
C        -0.28817295476039    4.01425802517772    2.14612038202480
C        -1.33717718185923    0.40847218349174    1.52873139826761
C        -0.98025423072536    5.34438694536416    1.92017604529953
C         3.86818818986824    0.56382965831716    2.33380403221114
C         3.97203711296914    0.93304849558524    0.99791273391562
C         3.25389838762244    2.00823066191549    0.46808970205994
C         4.66512545401842   -0.64288568051676    2.79454840266047
C         3.47002032529213    2.34939576714493   -0.99100416730758
C         5.58252471593182    3.54134760799417    3.89256874404387
C         6.84327546617074    2.94257508822985    3.26520721710409
C         5.17177830522611    2.74679265010309    5.13711548233280
C         5.80640142327471    5.01188513698836    4.26846676938449
C         1.52109804347874    3.64564731783842    5.57953298488180
C         1.25257125173575    3.20442927443107    6.84078856894798
C         1.35153010403687    1.50914594391332    5.47865645524395
C         0.87692501388243    0.95547721286357    7.85843745545308
H        -1.95807037157958    2.96581124999294    1.32536495368532
H        -1.52540267599496    0.46858433510439    0.45912428378167
H        -2.29364952965688    0.43662300412218    2.04628848882156
H        -0.82983463725436   -0.52644653830902    1.75123893113477
H        -1.91305618372939    5.38227523726037    2.47882168408751
H        -1.20753363238663    5.46561201004370    0.86380248564408
H        -0.32700212781215    6.14938309846698    2.24358348933105
H         4.63829026898778    0.38209265917172    0.35362234890479
H         5.72007846310242   -0.50242523305890    2.57137448734267
H         4.32117317825103   -1.53152468386820    2.26945350975597
H         4.53743622665870   -0.78756483218311    3.86426710934698
H         3.37647228906587    1.45999898481863   -1.60940186513406
H         4.47197175555609    2.75453331080845   -1.11496328305254
H         2.74490882020208    3.09601514646252   -1.30220544083902
H         7.68318807515931    3.03604873094111    3.94849335030899
H         7.07213133027899    3.46431300016473    2.34011765803737
H         6.67857917186349    1.89371603099361    3.03504829802804
H         5.99624446368646    2.71329142977531    5.84566649437232
H         4.89176590409241    1.73616480211345    4.85407393208531
H         4.31263717185499    3.22223502501420    5.60297002886181
H         6.50376788855476    5.09598836626182    5.09841300384586
H         4.85048076172551    5.44668462313501    4.54900105866849
H         6.19500380730453    5.55898605372323    3.41333257031180
H         1.68994576586287    4.63418870136041    5.20555557409422
H         1.13237220343498    3.73220763827215    7.76447216435833
H         1.33505401226629    0.50539346233524    5.10541321122297
H        -0.07413033497128    1.20947756446535    8.33041725304939
H         1.66764956366909    1.02402331132808    8.60818160972206
H         0.82774394185426   -0.06650779907089    7.48839467698440

