55
CSD_code = LACSAJ | q = 0 | S = 0 | Stoichiometry = C19H28CoNO6 | MND = 6
Co        9.66923427893035    5.82239911212479    8.87180149867087
O         8.88786401288722    7.06808136492244   10.05008166728130
O         9.14689701182034    6.77190773453833    7.34523660931207
O        10.23941545934012    4.83543656625793   10.37226053810213
O         7.94792138900681    4.88754853399074    8.84618750694854
O        11.17484212385792    6.88075377082465    8.75214296069204
O        12.26809481057885    6.57317643115724    9.57201939755970
N        10.44631733321695    4.53602939615671    7.75295946155845
C         8.38176241223676    8.18076177160853    9.73334813305978
C         8.23777872321211    8.66368088378611    8.43521256942783
C         8.63311685783266    7.92232845224636    7.32134620630024
C         7.90605781922966    9.05307034066897   10.87628129306836
C         8.40747506861721    8.53379973850505    5.95457340295463
C         9.53934415831199    4.08736930032317   11.10684987107147
C         8.21248915544197    3.72200875576217   10.87949195099690
C         7.49546656661386    4.15114667433171    9.76197896926543
C         6.06382709366839    3.67596730098977    9.62136726105808
C        10.21929488484881    3.53725706364485   12.34359592317348
C        12.49863918651577    7.52051958067852   10.62243849839672
C        11.58902955477146    7.25868507141195   11.82649442973789
C        12.30909444659094    8.95127254536091   10.11436416145107
C        13.96173224416690    7.27420449497860   11.00528843663379
C        11.68875301823544    4.09860434471748    7.96053155241517
C        12.29474626102179    3.16345083209158    7.14022589699837
C        11.59543642473034    2.65709826939485    6.05650974035841
C        10.30556027274658    3.11847034583835    5.84165139432886
C         9.77192668431526    4.05392410461398    6.70832436211100
H         7.80560801048857    9.64007757220676    8.28663858823722
H         6.91703633301991    9.45145759133263   10.66660260317392
H         8.59468051220747    9.88699940441360   11.00058424321286
H         7.88429014208424    8.47520790319287   11.79637160923232
H         8.73640388560156    7.84142655698759    5.18535153141979
H         8.97359982746073    9.45818933863468    5.87192639245043
H         7.35347690631496    8.76242459939350    5.81542920975452
H         7.71956955949837    3.08559587442008   11.59683864814204
H         5.47804970918168    4.01486711889814   10.47289692673643
H         6.03234259359064    2.58885299927343    9.59572455259792
H         5.63269909658028    4.07365456746360    8.70665820121391
H         9.98073790613013    2.48592879244564   12.47984762476234
H         9.87065079113876    4.08704464892213   13.21607248732857
H        11.29460980116500    3.66518988930588   12.25586099076985
H        11.74058733341866    8.02119053430494   12.58732932281983
H        11.80557319872482    6.28153519946488   12.24932953358043
H        10.55231709224566    7.26834742840945   11.50487922418441
H        12.53890615736756    9.66409826716694   10.90216925038726
H        11.28035869846230    9.08362519354758    9.78945055234664
H        12.95997999202742    9.13096962217755    9.26205606947030
H        14.23997648823815    7.91256612190551   11.83936898259316
H        14.61073467821566    7.48539247890706   10.15969326394720
H        14.09636686481400    6.23437717161581   11.29138799237102
H        12.21066121911038    4.53120595121873    8.80162846382356
H        13.30336133717397    2.84347565702384    7.34952730021572
H        12.04159711344198    1.92826034521750    5.39653710075264
H         9.71792611275504    2.76093742168054    5.01040351537331
H         8.77198138679614    4.43604896954753    6.56927212616931

