97
CSD_code = LACVOA | q = -1 | S = 0 | Stoichiometry = C36H44HfN4O9P3(1-) | MND = 7
Hf       -0.03344124181275    4.73607673112138    1.78905283074626
P        -0.37004488701970    3.35698298783154   -1.06928338651104
P        -0.27081483874187    6.18271876287573   -1.03830259528635
P        -2.58691526137365    4.83543656132615   -0.15919172831821
O         0.15978872287924    3.34001940042412    0.35120087195110
O         0.26770964861113    6.13109474700862    0.37794193428710
O        -1.98834450764184    4.78722277977930    1.22938999169808
O         0.11077691445164    4.76266524623236   -1.71381324654174
O        -1.87976688175019    6.08027153099562   -0.91705222307470
O        -1.96978115590258    3.57098307860067   -0.96094480873965
O        -0.05120821752529    2.24076846042822   -1.94986569412776
O         0.11768622448036    7.29542817807795   -1.89500570382983
O        -4.03619819805316    4.89455857293582   -0.30028418960161
N         1.70647743214036    3.27121604066194    2.38087425395320
N         1.79813707286735    6.10124078441832    2.41046657568124
N        -0.90852626256496    6.19276862674452    3.26822376670758
N        -0.98590297771081    3.33958444994299    3.28736269155996
C         1.44783066102353    1.93141066857326    2.32694338712324
C         2.58948484508783    1.20583302697057    1.81244919310338
C         3.53991204028783    2.13814863829167    1.53029228470147
C         2.96545586876830    3.41944336246250    1.88089882662932
C         3.61128703788207    4.63290237056937    1.70502785048422
C         3.05624744150010    5.88151029110501    1.93603614762463
C         3.72710239830054    7.12992930888825    1.64093035328244
C         2.83084478572902    8.11599971669443    1.91645806780653
C         1.62689281853806    7.45492391135213    2.37352853327103
C         0.45115888193033    8.12359589982020    2.67563796830899
C        -0.74401945995871    7.53030353413103    3.05211723203041
C        -1.97267807574410    8.24470963047490    3.31474891946556
C        -2.88289671420991    7.31024526899555    3.71179502167545
C        -2.20527666893446    6.03444048841644    3.66762528253212
C        -2.80009172331427    4.82074339883897    3.97778958117371
C        -2.23987718550489    3.56799749804728    3.77686845076315
C        -2.93337839482010    2.31957025703927    4.00144795683501
C        -2.08432390285411    1.33005423562953    3.60160667176469
C        -0.87481146987273    1.98688097446030    3.15855782575384
C         0.25985418575806    1.32896098213886    2.70800383464983
C         2.62272114069596   -0.26046255221891    1.53582912148313
C         1.98293282716543   -0.54402159695200    0.17335245680009
C         4.91625058779251    1.92459486574870    0.98974598585068
C         5.96140715976317    1.96449618400594    2.10829440612902
C         5.13199354762083    7.26325782012650    1.15056805113061
C         6.13550956443332    7.07965017709226    2.29250466787393
C         2.96922671662845    9.58291791868305    1.67728335674421
C         2.43806008412005    9.93183394527354    0.28336800701431
C        -2.15961654093630    9.72124763979484    3.18238981427517
C        -1.65719800929042   10.45862458270240    4.42710617238623
C        -4.33823056655169    7.49511709020492    3.98591283826113
C        -5.13974132714654    7.22538467813503    2.70805495114814
C        -4.30731266484487    2.19221667538394    4.57251090452022
C        -4.29798544321270    2.38497314227328    6.09136030811709
C        -2.29835915470766   -0.14802940855142    3.62587254812683
C        -1.66358914718925   -0.78196106636625    4.86660304068609
H         4.61290855030425    4.60511819530120    1.30151555955853
H         0.45371317476606    9.19801039407931    2.56573352902216
H        -3.82034148649695    4.85044042202242    4.33089870826196
H         0.20504662013751    0.25337312388713    2.62568913378103
H         2.08491838911214   -0.80305137400481    2.31685184944795
H         3.65580057726715   -0.61714289387896    1.53817874917302
H         1.91944743108834   -1.61613262907491   -0.00756183235177
H         0.98772638309145   -0.11054772587250    0.12181723891334
H         2.56981881819588   -0.08812700100509   -0.61940767989293
H         5.14456261386462    2.69355660161851    0.24911212267196
H         4.96438545697834    0.95727737448216    0.48674025696911
H         6.96266383858752    1.82446154524097    1.70406118225326
H         5.92374911623042    2.91804235798782    2.62910717456154
H         5.76532360263303    1.17656904998105    2.83225635624732
H         5.27080400571543    8.24976966926797    0.70496436359266
H         5.32346269262666    6.52014686905084    0.37373316662836
H         7.15667280593815    7.16298079820301    1.92391443869054
H         5.97796756017751    7.83939651924495    3.05496376000755
H         6.00839378773107    6.10475549599342    2.75640764301000
H         4.01931418396877    9.87637995148280    1.75413429151512
H         2.41473669837709   10.14103736435815    2.43495058466124
H         2.43516396870302   11.01009024158532    0.13013057888394
H         3.05849657309320    9.47103852310983   -0.48068732976843
H         1.43013826125287    9.54685920692842    0.15204022766313
H        -3.21844251239895    9.94279713044227    3.03716065711896
H        -1.62173854924070   10.07946919591115    2.30271056012905
H        -1.77989779730131   11.53419327508803    4.31102395169164
H        -2.21519607301061   10.13767813557547    5.30411694136965
H        -0.60564237850900   10.24191210358714    4.59799722853042
H        -4.52785858814799    8.51436169089724    4.33170106197571
H        -4.66138106405323    6.81233645762029    4.77502621202395
H        -6.20919560341741    7.25445231648822    2.91111743507994
H        -4.90701145292919    7.97379959069560    1.95499346631895
H        -4.88025373607870    6.25634797150019    2.28847908103967
H        -4.71049223922255    1.20428249534035    4.34070484543547
H        -4.96289813835928    2.93499128282850    4.11376430618441
H        -5.30687590223339    2.30861287664850    6.49345131936632
H        -3.67867814751035    1.62527397283259    6.56308915820117
H        -3.89015887236625    3.35960592667451    6.34707461069155
H        -1.86698121636358   -0.59476247682926    2.72794503086336
H        -3.36895394695809   -0.36364729882156    3.62242824982735
H        -1.80463335651527   -1.86153137428237    4.86019613661789
H        -0.59845105535624   -0.56654121575845    4.89817071127244
H        -2.11765072263406   -0.37841463407620    5.76871560266992

