105
CSD_code = LACWUH | q = 0 | S = 0 | Stoichiometry = C46H50N2OsP2S4 | MND = 6
Os       -2.96281880257825   12.04413806457777   12.19576116838801
P        -4.00486369438379   12.34308174184311   14.20316726078461
P        -0.78486791976198   12.62266533033256   12.56490926320064
S        -2.73669191803128    9.62871143057972   12.50936046977609
S        -5.08550497817675   10.95521395084678   11.51755670944356
S        -2.31016734045511   12.00977655260365    9.79486606872913
S        -3.48416094144644   14.22325494040205   11.20925904689135
N        -4.81648960455597    8.30721271204627   11.49533863601567
N        -2.89207291182560   14.32222163514338    8.61852202251344
C        -4.28377513910271    9.49090795333692   11.81565210976243
C        -6.15743959339305    8.24060476405737   10.95403515856588
C        -7.23356083638563    8.32869102220384   12.03277489281054
C        -4.07523797860864    7.08681416381063   11.72792778106239
C        -4.25176608535650    6.54206173488501   13.14212676128202
C        -2.89200568916117   13.60053286358969    9.74169055936461
C        -3.31228030568334   15.70669100252552    8.62935211553055
C        -4.81854273954155   15.84397723358341    8.42405221063074
C        -2.49115971455044   13.73791335730131    7.35693805437378
C        -0.99722977658935   13.90717005505779    7.09920864417672
C        -5.60847918260948   13.23694874555735   14.25358235313182
C        -6.18110360810272   13.48428221323054   15.50107968292741
C        -7.38172958437668   14.15888396110925   15.59531807905256
C        -8.02440747054809   14.59865849442758   14.44765187470434
C        -7.46090740769113   14.35711893464473   13.20783189660582
C        -6.25755577188347   13.67852740406337   13.11024647736816
C        -4.49518818851364   10.80235162930062   15.05332945769475
C        -3.50767028162362    9.99530699897407   15.61456585976404
C        -3.83712528803105    8.77769015573503   16.17914213095919
C        -5.15161129090819    8.33716226344531   16.16323718624287
C        -6.13103913747358    9.11500887885833   15.56974668648201
C        -5.80675960327007   10.33968243768615   15.01310057598107
C        -3.19630096897200   13.35630318625821   15.49292080843050
C        -2.82470072860188   12.96106836524328   16.76904680197067
C        -2.24533497126992   13.87744579766290   17.63113116663291
C        -2.03917369842902   15.18567847426893   17.23203964671455
C        -2.42184744793215   15.58927516110726   15.96207121156778
C        -2.99776521554428   14.67845118406285   15.10037418144602
C         0.55738868964803   11.53157017123231   11.94955813965171
C         1.87260914105066   11.86200620341108   12.27566575944761
C         2.91781471143553   11.07338659355065   11.83833650764312
C         2.66475350137715    9.94428448479075   11.07368390530542
C         1.36240131212056    9.61113413999456   10.74801469878910
C         0.31198451748153   10.40147051636453   11.18387455586395
C        -0.27141978600439   14.19574139960299   11.78947446213190
C         0.45176268791391   14.21530280230928   10.60111464215579
C         0.69936674870045   15.41412622216165    9.95555414235951
C         0.21661964867625   16.60150546451150   10.47833534326902
C        -0.52267032270035   16.58793843564964   11.65055137914319
C        -0.77506966916436   15.39251664815009   12.29589931400685
C        -0.16991274958263   12.71924278366625   14.28363178763090
C        -0.23808472179270   11.50149378135319   14.95728799036823
C         0.21127872920312   11.39138348848766   16.25729237358459
C         0.73607087834612   12.50279824743681   16.89880655449871
C         0.81514245599823   13.71158631666834   16.23098686366891
C         0.36784529255623   13.82489955377179   14.92502868902457
H        -6.25176837608115    7.30420895431229   10.39922352846846
H        -6.28310867031591    9.07536482692132   10.25626884753406
H        -8.21670925992712    8.30627912397973   11.57022354178802
H        -7.15418249883906    7.50020077940811   12.73177455402515
H        -7.12786898063965    9.25972127523277   12.58311179358565
H        -3.01539981150825    7.30295509010363   11.56050150946165
H        -4.40265573436035    6.34716960709342   10.99254134562053
H        -3.62569273957749    5.66376830836982   13.27442631445408
H        -3.95519486362789    7.29572975931357   13.86682985390680
H        -5.28601347076499    6.26462643555234   13.32889371765556
H        -2.76819470991136   16.22854317240957    7.83843023577656
H        -3.03174426966017   16.14060355123655    9.59324057626845
H        -5.09797441641717   16.89368283176071    8.42452478166664
H        -5.12139994452731   15.39998674545390    7.47814005149171
H        -5.34609514241875   15.34226410782539    9.23080171225948
H        -3.07187466365012   14.21648971557141    6.56415328424319
H        -2.73824612721954   12.67283174136473    7.37772344529337
H        -0.73941329314263   13.48770293282184    6.13057542903079
H        -0.72229075963298   14.95956573040188    7.11326646734209
H        -0.43101642000330   13.38904569852442    7.86818148242471
H        -5.67983495115085   13.13865281796583   16.39562811082238
H        -7.81969516470701   14.34414794607891   16.56582454087303
H        -8.96346783039801   15.12771225956707   14.52345944890150
H        -7.95847063876841   14.69629372998810   12.31076198383169
H        -5.82440209974119   13.49131624068761   12.13917379036956
H        -2.48026702060911   10.32783675028787   15.58717327229247
H        -3.06579989994948    8.16222872094328   16.62024515521135
H        -5.40777522116310    7.38199095698493   16.59860198967221
H        -7.15357773534147    8.76603544193235   15.53653922399110
H        -6.57422296219551   10.93998163473481   14.54378591662853
H        -2.99723554199098   11.94850764146514   17.10238656415281
H        -1.95804194930067   13.56529959159906   18.62498642752767
H        -1.58810863059882   15.89368111545177   17.91189206760042
H        -2.27505560959842   16.61441391447177   15.65243583838846
H        -3.32637196909043   14.97175904951385   14.10930074150605
H         2.06873865157894   12.74526991225443   12.86918924550873
H         3.93427648719680   11.33805320206154   12.09288214634011
H         3.48422601325267    9.32780574241779   10.73325482738601
H         1.16006749480989    8.73335652877898   10.15147988721639
H        -0.70207433974332   10.13690392948444   10.92403298841334
H         0.81895518281139   13.28940156214315   10.17988397630163
H         1.26836767742924   15.41898560766796    9.03647503585292
H         0.40697248962999   17.53508406249780    9.96845106023373
H        -0.91637091258748   17.51044311818745   12.05312228415706
H        -1.38207455877927   15.36920760839797   13.18912118295021
H        -0.63554373875767   10.64429058747583   14.42468010825094
H         0.16076303794241   10.44247349716439   16.77244646496850
H         1.08947274867771   12.42339415601542   17.91652979499931
H         1.23362945678575   14.57548225765585   16.72730039134794
H         0.45482043665778   14.76997798077652   14.40971094262716

