35
CSD_code = LACZIY | q = 0 | S = 0 | Stoichiometry = C12H19ClO2Ru | MND = 9
Ru        1.14587834639998    2.12358842342933    1.78382841004222
Cl       -1.00739879850205    2.45686028252959    0.89756645914360
O         1.91707643840169    1.57731275093056   -0.14847721143774
O         3.27223401119655    1.62869951685311    1.54509660536831
C         0.69654692438658   -0.00114090643419    1.85179526630732
C         0.29679003768992    0.58921459593601    3.06673364213603
C         1.35770430937762    1.23685807857834    3.75462975134146
C         1.13254051430045    2.04355191926261    5.01860331928536
C         0.47591625296632    3.40067184469585    4.69160551231553
C         0.53407077440610    3.68728739483014    3.20237506942347
C         1.73908797460607    4.05220995055866    2.54761566077525
C         1.62785336831660    4.13770954159345    1.14462092978795
C        -1.13649285642363    0.60227923721164    3.50735406729958
C         3.06114336333936    4.22075856716711    3.23799187726107
C         3.07394529544013    1.45271606199734    0.31738431699569
C         4.21883420184584    1.08496693216301   -0.59666100940324
H         1.65517480421808   -0.52156815526203    1.79967978150814
H        -0.07279356754087   -0.41890633267043    1.20806226370564
H         2.33585461572631    0.75025972713713    3.71087665342290
H         2.09159392591065    2.19541006617124    5.51575017987935
H         0.50256134683981    1.47284752254770    5.70666663002238
H         0.97294528131183    4.20671617093573    5.23853159025624
H        -0.56881314878830    3.39841841303131    5.00313733814377
H        -0.38728267958223    4.11551199866374    2.80198085077646
H         0.72278841569291    4.55443128216612    0.70180939370902
H         2.53317370290901    4.34325850871728    0.57496317934321
H        -1.31991357676997   -0.30230586348899    4.08982351669565
H        -1.37246249969010    1.46740038259621    4.11830830319507
H        -1.79861269274330    0.60213272769941    2.64466906359722
H         3.16795793758190    5.27020165561967    3.51865129790043
H         3.13992465270874    3.61456288443353    4.13486661579035
H         3.87972074800937    3.95854844883881    2.57045598451669
H         4.22917437172296    1.75410927415036   -1.45338250413899
H         5.15888295247198    1.14354649066763   -0.05569671291596
H         4.06709525226050    0.07148060674527   -0.96251609205131

