57
CSD_code = LADBUN | q = 0 | S = 0 | Stoichiometry = C20H35CuS | MND = 2
Cu        1.87738636336506    1.72533942648470   10.05835187859046
S         3.52809377733956    0.09318435582589   10.06253469768687
C         0.39699295491272    3.01362679749834    9.90207954915979
C        -0.17483180180331    3.61199066530006   11.04312505388130
C        -1.21023577134508    4.53190614258211   10.93691559345681
C        -1.72876451681864    4.90377576185393    9.70890922383703
C        -1.17793053744480    4.31968715460958    8.57748009339668
C        -0.14563569443199    3.39922037833159    8.65739057926174
C         0.35321510809637    3.23852800876372   12.43625466542184
C         1.84354421828578    3.59168922123841   12.53384419720505
C         0.15431652244876    1.73461992976757   12.67039242920864
C        -0.35441040873123    3.96797169611447   13.58487600288790
C        -2.85848232603655    5.91334517926494    9.55360426815048
C        -4.04376970649163    5.24182516601815    8.84568327752296
C        -3.35860755759455    6.45964624591785   10.89402405924753
C        -2.36055211608549    7.09952039816486    8.71564665532700
C         0.41745193701042    2.79000539662684    7.36459295149025
C         1.90665765329279    3.14153264480775    7.24407348587093
C         0.23142115813447    1.26663919106533    7.39959697984118
C        -0.26635657132174    3.29349753821179    6.08776941911887
C         4.00383202811874    0.05781494278797    8.30594489387566
C         2.50620848651508   -1.41304996412151   10.10706743995596
H        -1.62336696042807    4.97128857471799   11.82599536329871
H        -1.57420857725911    4.60169065441080    7.61672855039658
H         2.24490618157275    3.30690964292706   13.50508817960954
H         2.41435108879965    3.07381393165127   11.75904865220267
H         1.98228085113758    4.66171413513628   12.39627052787295
H        -0.90493481528278    1.48917032999903   12.63701244215812
H         0.66128138983418    1.15813429313848   11.89306663840154
H         0.55437084460915    1.43791996059404   13.63868125177148
H        -1.41637753774910    3.73533204701820   13.60739317268235
H         0.07709967726895    3.64675155108945   14.53236509295608
H        -0.22440332623936    5.04480995029998   13.50820548809271
H        -3.76375367963627    4.88705008092461    7.85755193481453
H        -4.39254540520773    4.38978808541241    9.42606963271699
H        -4.86708679107309    5.94574811514560    8.73434431885172
H        -2.56282595824545    6.97440974023821   11.42765412942640
H        -4.16280173433864    7.17304114410944   10.71954670587540
H        -3.74835352046247    5.66046748298345   11.52058900331966
H        -2.05312501957734    6.77954872316122    7.72377799062702
H        -3.14783075775892    7.84369192210085    8.60538545498691
H        -1.50641281792204    7.56779524544532    9.20095527464437
H         2.35100616941669    2.66251635734481    6.37215545178681
H         2.02459588143311    4.21834372115264    7.14849139606392
H         2.44696221956020    2.82361754348369    8.13851635035523
H         0.68861483969948    0.79828232523726    6.52811256189207
H         0.67908817779455    0.85436572073622    8.30683077338697
H        -0.82848143224484    1.02297800094823    7.41053816707465
H         0.18765106728632    2.80952460042197    5.22332737208342
H        -1.32664441601570    3.05224027743926    6.08561588235156
H        -0.14238487748026    4.36733049333813    5.97083658952571
H         4.59764636204943   -0.83435500939147    8.12595328555136
H         3.11783213691211    0.06755050248685    7.67838532462899
H         4.60172855093745    0.94390355052642    8.11704942326709
H         3.14335866711333   -2.27109820340800    9.90982267569180
H         2.08501390279404   -1.48722705295695   11.10470007201968
H         1.71030641929776   -1.34816471497298    9.37087747522571

