83
CSD_code = LADFUR | q = 0 | S = 0 | Stoichiometry = C28H44N4O4S2Ti | MND = 5
Ti        6.27179857500512    6.58739061516905   22.66540922731706
S         5.71361024167149    6.45270561118941   25.26540909529496
S         6.76040747899702    8.42557167980846   20.79778942128987
O         5.78035746028584    5.23087725835683   24.44921151453098
O         6.91444891629654    6.74581294946675   26.01599517616013
O         6.80917569307136    6.99229851070240   20.47100654228443
O         5.52407645534390    9.08612192123442   20.44242889625944
N         5.37660105668482    7.59050603919555   24.20733637989221
N         7.02958869889743    8.46163204994674   22.36466524837271
N         4.75884949999509    5.84478405813161   21.91785183275420
N         7.85784130387039    5.64610565020647   22.68234367578366
C         5.96835194965119    8.87971272217511   24.46326938050330
C         5.06895212202971    9.84854764982517   25.23530877693492
C         5.81103678175947   11.17059132164235   25.42864714453637
C         6.25197218147186   11.76527091331369   24.09050837682895
C         7.10990228608174   10.78045754829175   23.29677091702190
C         6.32353468429979    9.48212617729504   23.09818509885676
C         4.33850799785543    6.22364027360387   26.42208883938243
C         4.54467314717902    6.04738942234283   27.78960511191315
C         3.43357481464488    5.92498473483513   28.61919000008627
C         2.14067628192101    5.95826299529901   28.12387124082120
C         1.96681323940454    6.09628151501271   26.75424684011312
C         3.04777139306001    6.22774312961923   25.89248510817630
C         2.80292041070541    6.35999644472046   24.42650056838910
C         0.95511279346790    5.82111640598255   29.02943857708717
C         5.90384750328880    5.95724903086833   28.40584974117841
C         8.71505938997941    5.68362746999267   23.83897706244460
C         8.04279630372061    4.43363772334683   21.92603025654713
C         3.86309942949129    6.66063161914653   21.13966746421771
C         4.68572232990534    4.45896501586227   21.53081824500667
C         8.12332136449284    9.20391472004925   19.89281201376494
C         7.90010111721390   10.04497302476654   18.80350352603945
C         8.99679816414776   10.64211840944232   18.18846620833052
C        10.29359638584861   10.41250752779762   18.61721670115053
C        10.48815581893973    9.54023031786842   19.67840285471301
C         9.42136660459855    8.92805868901290   20.32325168286640
C         9.69090377453820    7.98522346600406   21.44790675610818
C        11.46409107320246   11.05834247595871   17.94101579392798
C         6.53933440583326   10.31443099428198   18.24595346997689
H         6.90435447198101    8.73883319104197   25.03622661302948
H         4.80564666576220    9.41016235401768   26.20166590173147
H         4.14767076374280   10.00920178671988   24.67035685777325
H         5.16877251126293   11.88327170756279   25.95118689687203
H         6.69097923024423   10.99343331245668   26.05099895582229
H         6.81211110609306   12.68641349545990   24.26707402575758
H         5.36826295625922   12.01821482727613   23.50052655602783
H         7.37415055114528   11.19909638092415   22.32196583177902
H         8.03401217599730   10.56077093985767   23.83666969237640
H         5.38278718077473    9.72145511797397   22.56719549960718
H         3.58880087780077    5.79332481378613   29.68056415860275
H         0.96579332458369    6.09991992640061   26.34689862929345
H         1.79216533724498    6.03787281459193   24.18247582941494
H         3.53239751046366    5.77493808820494   23.86409781310956
H         2.92714810369531    7.39814878411170   24.11910896324972
H         0.46433710761089    4.86317490296359   28.86066242065018
H         0.22892856500138    6.60632864264083   28.82818079072675
H         1.25273143598547    5.87622677771730   30.07306482414816
H         5.82430402185012    5.70196331711244   29.46049574808688
H         6.43580976504946    6.89986248564182   28.30276035103486
H         6.50101084457824    5.20687622527351   27.89437923350955
H         8.61027398024300    6.64675785454858   24.34592194475044
H         9.77036271777524    5.54855054244065   23.54758798168959
H         8.45842651164324    4.88602235938922   24.55982850056559
H         7.50897484579493    4.51937877138265   20.97536045844689
H         7.67841427508391    3.54684436954962   22.47858288476037
H         9.11261701098009    4.27079497367886   21.71136850793657
H         3.88415007508135    7.68930864263356   21.51019063367370
H         2.82995066315694    6.27998197518709   21.20700000229241
H         4.15006971658888    6.67402256590785   20.07236598748080
H         5.24340954467868    3.85567042325005   22.25280378933560
H         5.09418689215311    4.29534630120785   20.51546030848997
H         3.63795941955660    4.11371472336652   21.52367472832779
H         8.82779817680997   11.29846617184163   17.34670464123175
H        11.49466109174339    9.32935058718323   20.01078176200240
H         9.48917103063761    8.47244380717078   22.40167451334532
H        10.73084947671219    7.66395451938865   21.42892647257490
H         9.02701534359932    7.12111132853741   21.38769733415549
H        11.13846067108054   11.83466871881084   17.25394192513000
H        12.02739699979733   10.31441771409296   17.37847121608964
H        12.13549860034457   11.49710472667714   18.67649695170940
H         6.61445420525143   10.90104966888876   17.33271345223638
H         5.92688134924659   10.84869924155276   18.96807372094410
H         6.02639376596939    9.37941203979581   18.03598192336548

