129
CSD_code = LADFEC | q = 0 | S = 0 | Stoichiometry = C65H57IrN4O2 | MND = 6
Ir       23.23565977092794    2.05719003496869    4.50664154246513
O        21.85707413705808    0.42879350352588    3.94481177212770
N        23.66265851312934    2.08087623531271    2.53703694593188
N        22.94332493227526    2.47128353428364    0.46514401941220
C        21.91611197781588    3.44870454002637    3.89097914132091
C        21.83214069455458    3.58007598072296    2.48011762240675
C        20.95499092672677    4.47967107207761    1.86266255556156
H        20.95338064945528    4.60691524188528    0.79053798007412
C        20.09200840003962    5.19310936356039    2.65438808785175
C        20.11451860661596    5.03511317112097    4.04983305468769
C        21.02949124292698    4.19342293171078    4.66175612036423
H        21.04528923271511    4.11413956342089    5.73912320270569
C        19.05379846825376    5.85268396997870    4.61214682629931
C        18.38818106769276    6.51304352867939    3.56596089902079
C        17.27442999564714    7.28096031948304    3.83431054872016
H        16.71860263982033    7.75918410805770    3.04136648421355
C        16.85294155815754    7.42094724336638    5.15082132440945
H        15.98210998091634    8.02219930216623    5.36966112407115
C        17.53084155525899    6.79518847883951    6.18481526360279
H        17.18630037106533    6.92040312775802    7.20138757682376
C        18.63249654069284    5.99722965106835    5.92368838241892
H        19.14832426963646    5.48833183647127    6.72431263129504
C        19.05233151848021    6.21290916722996    2.24048895867734
C        18.07258263706434    5.64963470191750    1.20117779964972
H        17.29446382920545    6.38786720354999    1.00125743717015
H        18.61404627062692    5.46925832929764    0.26906013247925
C        17.41945593628131    4.35366378486015    1.66729244290468
H        16.73262768750742    3.98305148746200    0.90906955246239
H        16.86277267959797    4.51768911091411    2.58733663871674
H        18.17300977676937    3.59301637095612    1.85674836900103
C        19.81753131448933    7.44057516465812    1.69380724970813
H        20.57208225452233    7.71804853654606    2.43435108495115
H        20.34466414153124    7.12593585167157    0.78966597245131
C        18.96995763644716    8.66568486205212    1.37664094052570
H        19.60606103943387    9.44961558633057    0.97027348317281
H        18.49460037254377    9.04920924898334    2.27513167130100
H        18.20364295606137    8.43860875315148    0.63992489240845
C        22.08453703133225   -0.80133189663046    4.02273990379486
C        20.97559137351930   -1.72794694581509    3.54548203150454
H        20.65245402995115   -2.37237742250262    4.36079379930149
H        21.33776088220643   -2.35711211036157    2.73477485151113
H        20.13039415361690   -1.13992333442136    3.19488501636877
C        23.23563319194641   -1.42931686400409    4.50598039385113
H        23.23570572426458   -2.50979178644251    4.50560170775321
C        22.76288119618568    2.72400402375623    1.79671070549487
C        24.47690748786444    1.39294342874352    1.68135956684088
C        25.58314169931089    0.58497414399134    1.91878391610134
H        25.93094586287171    0.42746933337400    2.92597025285665
C        26.19852883985429    0.00897055646842    0.82712777933304
H        27.05974030616468   -0.62534292891867    0.97546112345953
C        25.73443530634325    0.22155007808447   -0.47223202847005
H        26.24039544705924   -0.25768934800394   -1.29698431660906
C        24.64551867349245    1.03261873237873   -0.72865889266255
H        24.28620366607038    1.19280857645732   -1.73400550123646
C        24.03167800884447    1.62704533956436    0.36181858645236
C        22.09861379707481    2.82189611076160   -0.60525269119133
C        22.61985698382077    3.46931804036734   -1.71820200269093
H        23.66798865667088    3.72739270362257   -1.74366042687222
C        21.78599261219009    3.79255478863094   -2.77458545699586
H        22.18986237270495    4.29988855794715   -3.63793646576404
C        20.43922649119306    3.47517796179089   -2.72274752186524
H        19.79176811832027    3.73449369269183   -3.54669602293014
C        19.92257135680529    2.82433262621248   -1.61327922075070
H        18.87333454948275    2.57392445917461   -1.57158948311888
C        20.74838384114788    2.48877327524537   -0.55722934622319
H        20.35970791878701    1.98176618912151    0.31298113253970
C        24.38667310244614   -0.80151989354634    4.98959524887089
O        24.61400088525204    0.42857828080819    5.06836873303745
N        22.80875011795723    2.08093209604526    6.47634038925972
C        23.70857435186663    2.72413855041929    7.21654316020292
N        23.52821821638944    2.47159816552649    8.54815496689635
C        22.43986947228378    1.62737751365646    8.65165388783512
C        21.99458013135349    1.39307433912361    7.33216579794773
C        20.88841512112377    0.58495152763816    7.09493185452450
H        20.54061424797568    0.42719198143795    6.08778194719229
C        20.27309707658675    0.00911305455682    8.18671809596709
H        19.41194190237731   -0.62531189706452    8.03853121107560
C        20.73719538292333    0.22197946855894    9.48602905208796
H        20.23127491207742   -0.25711078826603   10.31089321635079
C        21.82609441743810    1.03312980744654    9.74226564615219
H        22.18544627049050    1.19351121222630   10.74756933983398
C        24.37304446202889    2.82220243871985    9.61846616510618
C        23.85191104078011    3.46957870872887   10.73149433694604
H        22.80378984469981    3.72768554126156   10.75705347881389
C        24.68586771399239    3.79273848880558   11.78782962227121
H        24.28207301639187    4.30001462441671   12.65125000742546
C        26.03262579527699    3.47535117634950   11.73586061170654
H        26.68015435750736    3.73459409998077   12.55977718346231
C        26.54917978688438    2.82457830307562   10.62630227457157
H        27.59841291931249    2.57417169428336   10.58450155691243
C        25.72327087524100    2.48907725262787    9.57030957091632
H        26.11187097878177    1.98210898372159    8.70004253216680
C        24.63931734572516    3.58011466136609    6.53303132808501
C        24.55527871542332    3.44867268973765    5.12218446068089
C        25.44189347702488    4.19330705303096    4.35131850225305
C        26.35692620953043    5.03499880360869    4.96314558899492
C        26.37953099080902    5.19302237485502    6.35858477987441
C        25.51654895568245    4.47968701526597    7.15039419564232
H        25.51821257242377    4.60701085266415    8.22250817735352
C        27.41925674954479    6.21278724950324    6.77241253182136
C        28.08327887529055    6.51295578548688    5.44688733542149
C        27.41757972757897    5.85260278941903    4.40074738216910
C        27.83872612606757    5.99724480495304    3.08916607253957
C        28.94030038242130    6.79528929430825    2.82795542419069
C        29.61830105960286    7.42101040475571    3.86190510232514
C        29.19697919393371    7.28091745202002    5.17845670319119
H        29.75287391033803    7.75911882670154    5.97136711046469
H        30.48907123601974    8.02232755484624    3.64299899909215
H        29.28470813745310    6.92059119395499    1.81134864037354
H        27.32284356009949    5.48835731418953    2.28857058551974
C        28.39909824150150    5.64944157509912    7.81159868131967
H        29.17725062192250    6.38764837039224    8.01148078355467
H        27.85772433174888    5.46902290990696    8.74375944271037
C        29.05214052415722    4.35347421384132    7.34534972202680
H        29.73916727065786    3.98288751204197    8.10340609045656
H        29.60858776156030    4.51749219889388    6.42516172523944
H        28.29855541819245    3.59280750900581    7.15609552555074
C        26.65409045344616    7.44041605015049    7.31922078533414
H        25.89938714248331    7.71783357525398    6.57880972801768
H        26.12713905772497    7.12575386104936    8.22346009477823
C        27.50164358297901    8.66557782065032    7.63622371682296
H        26.86552892242692    9.44953534022252    8.04252141764475
H        27.97695619574430    9.04901375992769    6.73767194189267
H        28.26798849066096    8.43859875886419    8.37293973975247
H        25.42603293347963    4.11396196673480    3.27395736390518
C        25.49582120897790   -1.72833092779894    5.46599707117349
H        25.81968592245606   -2.37127581762338    4.64979078328102
H        25.13360190015074   -2.35898810772941    6.27551168342026
H        26.34056123418304   -1.14042629943858    5.81788977463857

