33
CSD_code = LADGAZ | q = 0 | S = 0 | Stoichiometry = C14H15ClN2Pt | MND = 4
Pt       10.95247763598154    4.47418280067874   -1.82883163606479
Cl        9.51759045136759    3.48871410599924   -3.20825197937330
N        12.08535006775339    5.36325378692787   -0.54501830527492
N         9.39560843220442    5.45291758843430   -0.46762161500598
H         8.52689124258736    5.73403927031280   -0.91501394104878
H         9.16719683045624    4.79237484215742    0.27379806848701
C        12.69465247398259    3.74313180231768   -2.46004623097165
C        12.97418226983436    2.90366582088801   -3.52923905407842
H        12.17855636657039    2.59836518354003   -4.19320179105263
C        14.26518701098280    2.45005649001509   -3.75345333171741
H        14.46583168235542    1.79671775108559   -4.59038540711441
C        15.30111845722166    2.82384064005483   -2.91021655476006
H        16.30295995776066    2.46236738623713   -3.09114253929492
C        15.05340705002824    3.65801501267940   -1.83831537909770
H        15.86394042923027    3.94687611029977   -1.18485557161140
C        13.76006347463347    4.12262488224912   -1.60414846302914
C        13.39355101335775    5.02361986838426   -0.52142651604806
C        14.22452880331795    5.55066381004145    0.46367444492412
H        15.26731972758557    5.28131106154936    0.49468148597080
C        13.69521680800997    6.41858122344707    1.40033813991946
H        14.32014942099753    6.83037622680046    2.17779779860520
C        12.35218895169072    6.77599703508728    1.33014317654373
H        11.94059743583155    7.47050300407246    2.04299812138207
C        11.56503126954344    6.22870755543738    0.33229145718454
C        10.11473484969369    6.62283133288450    0.06598084357987
C        10.14424137102832    7.67667563819528   -1.05018211474977
H        10.54063801572794    7.22134950398422   -1.96284416192324
H        10.77816470173809    8.51499241081616   -0.77266291311963
H         9.14081547537528    8.04654134097136   -1.25120431952565
C         9.40577483467640    7.16769469799377    1.30944715796763
H         8.34849904996884    7.31346672509598    1.09355102172373
H         9.81892560318914    8.12673749494139    1.60841796612370
H         9.49700883531712    6.47220759642079    2.14214214245047

