33
CSD_code = LADGED | q = 0 | S = 0 | Stoichiometry = C14H15ClN2Pd | MND = 4
Pd       14.50309493804911   12.91593283679399    9.82932985070963
Cl       15.79414404778479   14.40515796650344    8.85664415995837
N        13.28235464886001   11.69970220268951   10.69963439898730
N        12.67304881277592   14.29672790679437   10.25321791138522
H        12.89123931634531   15.28310781989191   10.38803258135289
H        11.97857781401007   14.22107211004084    9.50865640326373
C        15.52425774788049   11.23875593872621    9.49899821444563
C        16.75101515280788   11.05033965971433    8.87694498401339
H        17.32721765213702   11.90737322851577    8.55175665987829
C        17.24561385187796    9.77009715476463    8.66934654455680
H        18.20292923152402    9.63791823500317    8.18585666121239
C        16.51984310897346    8.65914867091572    9.07254841706135
H        16.91146467558864    7.66670389454450    8.90255230718547
C        15.29539154801750    8.81859694267942    9.69056410372993
H        14.73365078284966    7.94934483603202   10.00135608239938
C        14.78700926124730   10.09909278651490    9.90932505470084
C        13.52329222730228   10.38031680488181   10.57754769825055
C        12.61082448676733    9.46292792822915   11.09739576323308
H        12.78854943393138    8.40432629682835   11.00214094848474
C        11.47695132286884    9.93004525547691   11.73452099168261
H        10.75338927152404    9.23721776065404   12.13638877120132
C        11.27362282789817   11.29989543906393   11.87481414489413
H        10.40251577304147   11.66646414710540   12.39139391655001
C        12.21085013850725   12.16914386173828   11.34231482151531
C        12.18604106577508   13.68984395124354   11.50505878870247
C        10.80228113954665   14.23345244866096   11.87245511115962
H        10.05277124854184   13.89917852461551   11.15705235216912
H        10.82402819659846   15.32209143616279   11.86721276593070
H        10.50634581382347   13.91064262509928   12.86658873755990
C        13.21723808793466   14.03981672162990   12.59229099383543
H        14.22641336146804   13.77358264656454   12.23066691733563
H        13.01344414767136   13.49179470409368   13.50925590849056
H        13.19288886609731   15.10638725781127   12.80813703415554

