81
CSD_code = LADGAB | q = 1 | S = 0 | Stoichiometry = C36H40AgN4(1+) | MND = 2
Ag        3.70462423113433    4.67409168864027   14.22762759901893
C         4.04800524984057    7.12792221643797   14.79425360067276
H         4.84619360409740    7.10669574179645   15.52163532512287
C         0.92847890901159    2.75740980890490   19.00336590945052
H         0.84367934893388    1.68491600734396   18.95009475723201
N         2.04150304935516    3.20120110698310   16.75092738708246
C         2.31879554538112    3.00479291970449   11.15851091763990
H         2.09570644953867    2.33067747210029   10.32599421771356
C         2.72367482432036    7.01251512265221   15.21544246633947
N         2.14548623745365    5.35597646646155   16.92519141172395
N         3.73497072090645    2.85146569072805   11.44693871835683
C         2.17566445176956    1.87890209871219   16.16902936778015
H         2.68834437515253    2.04527798069983   15.20744369756458
C         7.16358530073365    5.44842777004095   14.69930712250386
H         7.73025376652198    5.98584463905754   13.95157336245926
C         1.10579504813350    5.58296529897717   19.21331024532935
H         1.17424915185431    6.65603138083398   19.29672637442563
C         0.47017330748676    3.43281185441211   20.11640781819158
H         0.03169740808045    2.87208631916508   20.92682769893021
C         2.40755922645859    6.75636472927730   16.66342703172417
N         5.70647101070524    3.12611226084357   12.29549967524313
C         3.04968120749065    0.97236713196015   17.03308889150338
H         4.01195837598166    1.44098922898296   17.22348431793794
H         3.22212699242931    0.03420827298169   16.51326928501914
H         2.57919415312047    0.75174070163015   17.98597646854654
C         6.58080397268823    4.23218262676401   14.37300642200922
C         3.29312465236155    7.51984517642005   12.54335667862024
H         3.51845641251424    7.73896076904159   11.51004617036677
C         1.48797544810731    3.51021079883850   17.97731997227931
C         0.80245839034114    1.26724930390071   15.89796903557235
H         0.26711210924286    1.07469436270092   16.82281753659014
H         0.91809474477443    0.32665216493278   15.36760578744586
H         0.20605394148383    1.93945486599218   15.28590741505769
C         0.55781436098073    4.82044601273570   20.22394540873359
H         0.18877180478107    5.30405123164977   21.11443489580115
C         4.41645924955381    3.51123863446465   12.41433411400464
C         1.69851239135896    7.15522767457952   14.28965662307612
H         0.67095524047325    7.08872826305934   14.61907909965053
C         1.56434315125004    4.90946626616208   18.09010510790748
C         1.96709093785050    7.42505408693980   12.95124587282697
C         5.86170764066218    2.24248475969977   11.24785773994851
C         6.85610982048400    3.61522962021183   13.02731103702263
C         2.43704106744801    4.32314686328877   16.11001258914931
C         4.58285025098584    2.06158754879689   10.70060565967257
C         5.87518083522845    3.53077454587796   15.35536907078261
H         5.51296079943166    2.53107550966382   15.14766828000532
C         4.32658019649135    7.36741479580412   13.45475606535893
H         5.34999726935857    7.49697375907652   13.13465597324365
C         6.76513048433336    0.76140802307087    9.64450067355391
H         7.60344916050691    0.24223664869444    9.20783776850237
C         2.03073949081484    4.44006352399010   10.72966937238101
H         2.25554860650658    5.11651993583491   11.55330035722384
H         0.98461863604260    4.54540806283681   10.45868440387471
H         2.64097701943641    4.71126143534958    9.87155474096614
C         0.84363763442283    7.65702408231951   11.99069895636325
H         0.45468024967429    8.66681177210643   12.12202360541466
H         0.02685718343471    6.96186838867064   12.17112367218323
H         1.17789390876175    7.55587139361447   10.96183500030742
C         1.46641172802348    2.60128682085310   12.35730675791920
H         1.70161998407587    1.58630928871934   12.66775058399651
H         0.41473979933181    2.64775423930897   12.09096389564719
H         1.65339250900421    3.28624967771255   13.19277234544652
C         7.07182034640170    5.97959163994921   15.98254028547802
C         4.38522500045315    1.21750442236557    9.61515070889592
H         3.41094496023498    1.06268824857024    9.17985324168603
C         6.97307684631521    1.59660477571882   10.72340508571528
H         7.96077909713432    1.73872434774850   11.13191472310630
C         5.49363040562136    0.57513034434802    9.10183920028345
H         5.37613598027846   -0.08595531379358    8.25786517711989
C         6.36507150839662    5.27064946671609   16.94585292534259
H         6.29410611499802    5.66000812810454   17.95121114039235
C         5.77266521398959    4.05813214932609   16.63586238287769
H         5.26509816065684    3.50090662983621   17.40970424287628
C         7.75117359185545    7.27194812306257   16.31113475513106
H         7.59310448087168    8.00863251783033   15.52539053866852
H         8.82538181956919    7.11068302229087   16.39966819297642
H         7.39296575370736    7.67741522481966   17.25404415927498
H         3.24510062015213    7.08242250658669   17.29257866295348
H         1.51804048899032    7.32581302592007   16.95398077929119
H         7.52717701339636    2.76063624644094   13.18118865000500
H         7.38427956921934    4.34134765072720   12.39667279244180

