68
CSD_code = LADJIK | q = 0 | S = 0 | Stoichiometry = C20H41N4Si2Ta | MND = 5
Ta       -1.23404648165538    4.30041820131748    3.12595398174795
N        -1.77087888843240    5.26925217964073    4.53896775359399
C        -2.26755492563491    6.05176845544115    5.61102371170240
C        -3.01576496590939    7.26663234136524    5.02605417524650
C        -3.24510963710087    5.23700661663359    6.48124870160605
C        -1.10675787472080    6.54992000584001    6.49540800514940
N        -1.86961414011461    2.44887717972383    2.51299038251550
N         0.66084727904839    4.70540514501323    2.51611880703770
N         0.28783243671898    2.51862508052661    4.14161337187401
C         0.47775822750572    2.18888679826278    5.41079491862286
C         1.28397941206204    1.13788528300316    5.80140722004685
C         1.91879863751317    0.40615848142025    4.80642702777947
C         1.71671365228110    0.74946196796245    3.48351401041352
C         0.88192717448004    1.82506232103260    3.17100583994789
C         0.57282406809009    2.25994058516962    1.76652342489788
C        -0.95707908156444    2.07306094698595    1.47912598633794
C         1.02629635954482    3.73774815657841    1.52999761737464
C         1.31369038035211    1.42111367869290    0.71531543653892
Si       -2.95537220622113    1.27944630038159    3.13721720012336
C        -3.96459441741192    2.20043733889990    4.45755881662902
C        -4.10785966948095    0.57435989798873    1.77435788386676
C        -2.05342538748496   -0.22846152639868    3.92012178397014
Si        1.79393746774962    5.83428131138552    3.16130439724495
C         0.92071543455443    7.53288367749269    3.15214814768937
C         3.40284064777808    5.93041730120982    2.12517024708859
C         2.26282355663804    5.32432756963729    4.94940073224473
C        -2.31779214568769    5.45236489541929    1.47044406740394
H        -3.45818446202948    7.86388945376268    5.81945245163077
H        -2.32347107815294    7.87957417621613    4.45675132376796
H        -3.79524143138006    6.91360647635363    4.35692675748328
H        -3.61240815510528    5.83835584315649    7.30949349907190
H        -4.08417089137638    4.90975681891404    5.87542114805497
H        -2.73878639292287    4.36046893749982    6.87659996118724
H        -1.47879516626598    7.21053059915859    7.27495103280314
H        -0.38608404060333    7.08192246334932    5.88256893718947
H        -0.60930275871951    5.70219273744249    6.95869790377463
H        -0.04961414230979    2.80605388295779    6.12598002531529
H         1.41367761555854    0.89540544661198    6.84413477761705
H         2.56052880125123   -0.42534235762919    5.05947378093210
H         2.20568626830355    0.18259372492458    2.70891907216715
H        -1.16748276057642    2.64992880473531    0.55952501122454
H        -1.09330064342232    1.01505013205007    1.21569577136207
H         2.11634242616681    3.71331529139440    1.40640365527815
H         0.60735557432541    4.02711682222209    0.54581616756242
H         1.04937882188577    1.77599374707866   -0.27990645727909
H         2.39313855570669    1.51066496431622    0.82568269702837
H         1.03663713871636    0.37017727985605    0.77733373587374
H        -4.79052593716649    1.59667843303087    4.81756340784979
H        -4.36618041917129    3.12510353416449    4.05371149172173
H        -3.33771518873996    2.45988551324963    5.30398260688838
H        -4.82077827004298   -0.12875462515116    2.19260624205568
H        -4.67067134180654    1.36307577024454    1.28443985828870
H        -3.54388577968591    0.04981538713157    1.00797206148572
H        -2.75829337715691   -0.99451276739462    4.22664650468053
H        -1.47910955725165    0.06145845644002    4.79559555767054
H        -1.36363839262447   -0.68490633816825    3.21458454067798
H         1.36796840097926    8.21509739215786    3.86682426016402
H        -0.12408068810392    7.38872653883444    3.41315186174509
H         0.96178501936815    8.00758183875852    2.17687335641780
H         4.02246019992097    6.75158144171682    2.46799979965638
H         3.19348231087286    6.09414451849282    1.07288020807755
H         3.99269435504768    5.02280604625644    2.21071940725717
H         2.80897191190877    6.10986841539987    5.46090624549245
H         1.35547320440905    5.12062668174579    5.50879726243832
H         2.87846644267376    4.42884930836551    4.97062966395559
H        -1.73909863337281    5.34436668400511    0.54971817332060
H        -2.45000888167989    6.51972928329617    1.63537020525683
H        -3.30595357036745    5.03304305244654    1.27709238418059

