41
CSD_code = LADJEF | q = 0 | S = 0 | Stoichiometry = C17H21O2Re | MND = 10
Re        1.53127100468738    2.95908524691953    1.41907078772589
C         1.28086974108758    3.46094976272271   -0.40519371647750
O         1.06999322279216    3.72822091649222   -1.50712553308470
O         2.93758890343884    5.09377452265727    4.61771221678753
C        -0.60529173787718    4.22335483479401    2.07116133812397
C         0.44012673882605    4.27332681078731    2.96770645856152
C         1.68195577576955    4.85878441924631    2.56407844161182
C         2.89725993347989    4.74722924694238    3.45481832911934
C         3.97123688524837    4.13945642661147    2.67791078859568
C         3.63833656996768    3.49904186897023    1.53831816154809
C         4.70933149971999    2.96126259704981    0.63632421491619
C         5.32728795334852    4.03517991242259   -0.29635434973767
C         4.23022245383181    4.67925736182925   -1.13959463938613
C         6.33236668119507    3.33300141933275   -1.21331632692144
C         6.05279442253777    5.11345529612934    0.50632048699601
C         1.47323989641509    1.15878298253967    3.44228574642267
C         2.55231573185969    0.95045040516643    2.60064181931106
C         2.04889148632428    0.75838626890964    1.25511571183569
C         0.61027457854922    0.75888800733762    1.35837630529963
C         0.27785352267927    1.03575409480989    2.68815564198724
H        -1.51105502838911    3.68528068170335    2.31014372965903
H        -0.67961973983321    4.94349794512067    1.26508104691593
H         0.38696670412649    3.74498336308251    3.91633123387702
H         1.65327855179697    5.79202795538991    1.99496756386132
H         4.98205871378532    4.20495263854412    3.05849021445837
H         4.30316276200883    2.17452712527197   -0.00059463784151
H         5.51566499395853    2.53946366631356    1.24334870619775
H         4.65245439325013    5.44383031052586   -1.78672351383392
H         3.73895655913904    3.93497261974358   -1.75812300328990
H         3.47855395861705    5.13241135038100   -0.49751659667759
H         6.78100001419855    4.04952193211069   -1.89691829688123
H         7.12870940973089    2.87001316878287   -0.63455119159075
H         5.84101824577566    2.56261001867729   -1.80230415538321
H         6.53530731909383    5.81534956646823   -0.16976827571814
H         5.35316687521537    5.66598638387776    1.12646926774686
H         6.81860861933300    4.67606071589152    1.14309289089212
H         1.52662566599826    1.34579658265155    4.50245132453246
H         3.59031115451400    0.90976433112234    2.88642254816399
H         2.59759704731690    0.25905827921181    0.46653885983318
H        -0.07242928674918    0.46398308569244    0.57631193946742
H        -0.72126219675437    1.08616587775093    3.09103846232833

