26
CSD_code = LADJEH | q = 0 | S = 0 | Stoichiometry = C12H11CoS2 | MND = 7
Co        8.17046933067817    0.27934517703172    7.89410511132699
S         9.41685636640659    1.05436430007201    6.33964053663455
S         6.95989267443281   -0.75221969714834    6.46995936417603
C         8.76865725618796    0.43291329834145    4.85705564187727
C         7.64282003292254   -0.39505641886492    4.91834158679095
C         7.09997786137640   -0.90853833088292    3.73886670426912
C         7.67723152594422   -0.59442675272200    2.53284767488646
C         8.80632991469509    0.23541078175903    2.45901251058350
C         9.34302789123486    0.74227114292761    3.62380303357261
C         9.41094779364994    0.54843203661889    1.12541519042203
C         9.28736071989131    0.82863349562731    9.56813587201368
C         8.87970398314813   -0.52599544682889    9.66988064979771
C         7.46127791014792   -0.55729409591216    9.66816503561787
C         6.99511779529213    0.76864421363136    9.53763845387950
C         8.12761907838099    1.62832071623442    9.47478489235945
H         6.23132868176638   -1.54593323576793    3.79679522502459
H         7.25771972577011   -0.99083737383816    1.61990961108007
H        10.21115974113675    1.38367038217168    3.60360261150776
H         9.82508780040316   -0.35593238835176    0.68011203598325
H        10.20601920856629    1.28288718058197    1.22088877006496
H         8.65309548649626    0.93582168528712    0.44628746628241
H        10.30068892186140    1.19030489111283    9.63155689116659
H         9.52914858674658   -1.36863972166481    9.84858780724810
H         6.84808839398777   -1.43037486870091    9.82114090768407
H         5.96525050785437    1.08401276079822    9.58998379869321
H         8.10242281101497    2.70641626848484    9.47258261705064

