45
CSD_code = LADKIM | q = 0 | S = 0 | Stoichiometry = C12H24CdI2O6 | MND = 8
I         1.39610035916395    0.81212022082291   11.17976934600249
Cd       -0.98403437859052    0.00034863713316   10.27166983078350
O        -0.18123264048554    1.02246854868963    7.76242434387375
O         0.15125861996230   -1.73496676926459    8.35353246256051
O        -1.76876113444167    2.60370785285175    9.50644424741215
C        -0.01690435141034    0.03061207848002    6.77581821281026
H         0.45648432536339    0.46402354834221    5.88173011523093
H        -0.99053573911300   -0.39821471832772    6.49645681069055
C         0.87420803635314   -1.06310534950505    7.34828793138695
H         1.78584927221302   -0.61217229960503    7.76715132512660
H         1.15384742502714   -1.76811833415555    6.55081575977711
C        -0.99691791939193    3.14038682103808    8.45739666076763
H        -1.45319605318025    4.07370662468247    8.09398307824388
H         0.02654511778333    3.34953533159407    8.80185487631129
C        -0.95401209814684    2.11802404604464    7.33003041502145
H        -1.97718506908352    1.79472572538599    7.08820302696776
H        -0.49805289435221    2.57106843079679    6.43667006426442
C        -1.91791023368382    3.48368101779057   10.59641584224859
H        -0.94049926597706    3.69880079148113   11.05280454339758
H        -2.37406265383617    4.42668784358611   10.25902505404546
C         0.85510212086649   -2.81580124224586    8.91986456671559
H         1.12501922762619   -3.54053605063883    8.13678001039198
H         1.77137973449343   -2.46067439832418    9.41402916975601
I        -3.36316468426090   -0.81207390856156    9.36338358956887
O        -1.78601298757072   -1.02249885033609   12.78055885767631
O        -2.11840822870462    1.73493132539229   12.18945641728395
O        -0.19837939326888   -2.60375344626214   11.03659889251024
C        -1.95035994050351   -0.03064898582883   13.76717120520636
H        -2.42379553874708   -0.46405949772756   14.66123350984381
H        -0.97672971283678    0.39815420814051   14.04657472796213
C        -2.84142026687040    1.06309677569820   13.19467546668162
H        -3.75306213104637    0.61219872025444   12.77577478694814
H        -3.12106938683977    1.76811160693225   13.99214361021191
C        -0.97033177673108   -3.14042265480504   12.08557013872941
H        -0.51410857558084   -4.07376643004419   12.44898166164944
H        -1.99377805305740   -3.34951927760396   11.74102792701199
C        -1.01329373321820   -2.11808993442609   13.21296455482856
H         0.00986812435746   -1.79482491364049   13.45488736295236
H        -1.46933756276556   -2.57115128657849   14.10627197612607
C        -0.04914458551327   -3.48369601004587    9.94661696521277
H        -1.02652881862757   -3.69888268693793    9.49020202307976
H         0.40706305135967   -4.42666472418505   10.28403223892544
C        -2.82217988182112    2.81584761815150   11.62318446668406
H        -3.09201256944900    3.54059198944220   12.40629246280764
H        -3.73850315546340    2.46081200631936   11.12903946431256

