119
CSD_code = LADKOQ | q = 0 | S = 0 | Stoichiometry = C40H68N4O4S2Ti | MND = 5
Ti        1.41400893189070    6.71671568810930    5.53647421620657
S         1.38790128203968    9.35180594964875    5.52035862795326
S         2.33821664624787    4.69358562698181    3.99368916710300
O         0.79244527429683    8.57590877695343    6.62229719170210
O         0.45145529377030    9.71829352658395    4.47742755331278
O         1.54826664731645    4.34542444237223    5.17682501631940
O         3.76877508466728    4.58372123264207    4.18001876747893
N         2.51880794956430    8.39466580076684    4.95495814382943
N         1.91102918162582    6.18884193739881    3.64781544891416
N         2.36892919831789    6.28923369687005    7.04796129445942
N        -0.39770937002897    6.35366394848560    5.56507393940144
C         2.72156140209072    8.43777274186484    3.52640601501342
C         2.96329481724273    6.99420209942500    3.07350399850656
C         3.04702434113119    6.92907449152070    1.54595862845129
C         4.18888149805315    7.82428660800208    1.06731604066788
C         4.00303309697368    9.26242418928977    1.55182211579666
C         3.88703983633041    9.32164585016165    3.07420584469077
C         2.09950981477510   10.84480715355199    6.26849741629601
C         3.26829263526083   10.68933956502814    7.01277066505635
C         3.93749754058586   11.82664060790612    7.45068862181236
C         3.45718929496157   13.09887665478037    7.19304394336553
C         2.23826608294849   13.21806965519529    6.54334704942988
C         1.53395909787032   12.11199466587091    6.08284882582329
C         0.14569031126532   12.27242695523415    5.51200198718196
C        -0.84185208168712   11.66761602211289    6.51937640444305
C        -0.25276816977907   13.71144777293369    5.18974421098047
C         4.20482062595066   14.32779318369450    7.64950636601070
C         5.60240190466404   14.37756581382427    7.02948766267716
C         4.28513288666419   14.37362364149812    9.17702963948319
C         3.79742196780680    9.34003063576038    7.43626570078601
C         5.18925168871738    9.08598946228846    6.85488654832030
C         3.81641263575176    9.25515333526300    8.96679680792834
C         3.66150928139603    5.65956937000889    6.98184327073557
C         1.72403112724905    6.04668515682252    8.31404585938282
C        -1.37964801907875    7.31781731543997    5.13615774036330
C        -0.98418335806723    5.40959784549061    6.48575781134939
C         1.83443433944932    3.62261642125700    2.61432132388132
C         2.69996969228674    2.68617769634787    2.04217379488102
C         2.34433165672394    2.10586601004039    0.82988137830001
C         1.14882122597156    2.39933503556978    0.19500582422141
C         0.26628747488521    3.24942941913374    0.83898897167528
C         0.58210441737242    3.86232544247974    2.04654270622336
C        -0.47304589229763    4.70885603371120    2.71562200251377
C        -0.78119781049994    5.95995205659926    1.88812300632597
C        -1.74004163804820    3.87416354454608    2.93943007947275
C         0.79486614168994    1.78405229141326   -1.13667156630645
C         1.82993325933177    2.15367634520907   -2.20077618267541
C         0.66259602302387    0.26480108936334   -1.01045498682633
C         3.99372944341758    2.24391839378533    2.68530024604671
C         4.14102165395954    0.71914015854704    2.67102542002536
C         5.17841767208798    2.91149090183035    1.98189997849038
H         1.79636369493461    8.80269250000908    3.04296733330937
H         3.93369039513968    6.66205042277325    3.48761929443421
H         2.10150338143152    7.26732834031526    1.11627693083274
H         3.21012581744109    5.89341191645880    1.23566523798647
H         5.13298566975675    7.43308850294699    1.45302342661279
H         4.23990397799159    7.80808180299907   -0.02384044073128
H         3.09474150456221    9.67764628861101    1.10963921134251
H         4.84680139436193    9.87269980095444    1.22122587321938
H         4.81023870911142    8.95748860397673    3.53075665880457
H         3.71877438148142   10.34846603178305    3.41008227004021
H         4.85145947534837   11.71120906086122    8.01124227502453
H         1.83047318910913   14.20535364327876    6.40063211444259
H         0.08267646123235   11.68881842478389    4.59297449364456
H        -0.61320403840164   10.61719842308881    6.68452698671306
H        -1.85752976411900   11.74659227326237    6.13913624385012
H        -0.78145553917843   12.19578343624365    7.47011749157338
H         0.46564860773328   14.17699124188974    4.51895339286909
H        -0.34273208953817   14.31233900328179    6.09245223296530
H        -1.22160536332426   13.70753910234007    4.69542313555321
H         3.65048591363242   15.21008056336187    7.31129138462719
H         5.53650816668538   14.33319961809625    5.94482798579055
H         6.20769959783345   13.54187657336151    7.37045081475747
H         6.10469488911678   15.30105671218363    7.30906244521604
H         3.28793129867749   14.33340004827158    9.60907924517347
H         4.76730022614773   15.29322965125555    9.50122212838926
H         4.85769099135449   13.53258461443881    9.55905904727362
H         3.12695587481190    8.55712251208733    7.07115099624428
H         5.12839530976102    9.06017387606360    5.77075281439151
H         5.56707101229164    8.12727044534232    7.20049205008550
H         5.89348615202643    9.86190263343101    7.14965072952954
H         2.81862454445704    9.43309047462824    9.36051496219913
H         4.49791371534335    9.98200143600523    9.40390138405400
H         4.13546603816855    8.26222090718543    9.27369355971017
H         4.17537713948403    5.96348569692650    6.06613710125227
H         3.57627601499096    4.55757464145145    6.97949569176040
H         4.27910815316152    5.94672463563842    7.84950348941030
H         0.82626753146135    6.66749475472357    8.38300476416018
H         2.39618013314453    6.31319625043157    9.14652884784041
H         1.45091293348682    4.98223349018698    8.43716460752585
H        -0.94530545958258    7.99411569989193    4.39707688685592
H        -1.74556018333870    7.92197192929867    5.98768864477693
H        -2.25314059950890    6.81338064855701    4.69040719882565
H        -0.26323231202580    4.61902151460051    6.70459789040808
H        -1.88179214146656    4.94701265650397    6.04293420123499
H        -1.29781875706386    5.89958440221937    7.42647879684508
H         3.02386210833103    1.40600889101990    0.37154268309585
H        -0.69326945007155    3.44435985102326    0.38371681459071
H        -0.10820097951317    5.03182231197502    3.69502312603369
H         0.05643460576830    6.64965848062946    1.95850992357691
H        -1.66615158185050    6.45648953205179    2.27741733412391
H        -0.95511866489904    5.71290492455363    0.84220490965636
H        -2.45883406800568    4.44939893516026    3.51773108011753
H        -1.49985908659151    2.96938189917156    3.49276246888451
H        -2.20945856654261    3.59193591882275    1.99950560070097
H        -0.17492281883318    2.18543465967290   -1.45082272328551
H         1.92831780105503    3.23440851763520   -2.27326504557728
H         1.52618249777646    1.76688993995799   -3.17110026829669
H         2.80315752964903    1.73654438051289   -1.95589207155779
H        -0.07554766710001    0.01176957123224   -0.25294128423215
H         1.61134192439792   -0.18297014887882   -0.72660171748629
H         0.34890138840869   -0.16596758678882   -1.95882563740128
H         3.99010972130360    2.57128311524333    3.72374334946774
H         3.22751360436552    0.24420313297207    3.02112336783317
H         4.95489684993292    0.42829133535014    3.33097358137446
H         4.36986761223568    0.34305824631761    1.67672956819433
H         6.11394993322737    2.54009444484748    2.39293971838938
H         5.13322631613615    3.98468035460986    2.14395375734989
H         5.16012090325708    2.70952182719713    0.91230909619793

