106
CSD_code = LADNEM | q = 0 | S = 0 | Stoichiometry = C48H52ClOP3Ru | MND = 6
Ru        3.50065554510508   14.94053111307119    9.25528204921587
H         2.88043407702183   13.83230203857369    8.39728667566160
Cl        4.31628549622845   15.77414191321498    7.14518036895458
P         2.67548173689828   14.08393449284800   11.18685415527878
P         4.34510009914154   16.67722584421139   10.47789518746464
P         1.55099258486295   16.17785654529695    9.14082486228191
C         5.06133873966972   13.95969492570488    9.14542837856651
O         6.02847635018211   13.37005216175650    8.95931210897324
C         2.40279713865036   15.37433916708250   12.48023564779451
H         1.69383688648394   14.98826118600441   13.21994487983191
H         3.36715466392010   15.54627242829459   12.97306898925333
C         3.03503133496083   17.59097641901857   11.40652589371988
H         3.50699349597211   18.10698094126545   12.25013803953014
H         2.61795797178021   18.34246044580455   10.72532447462884
C         0.83340827739041   16.46666863966184   10.82147642780243
H         0.15572264115304   17.32462900002067   10.76589723057351
H         0.24993280156956   15.57710652456943   11.08698688199866
C         1.88265992104557   16.70934924923646   11.91990398993498
C         1.19487697248401   17.46420407769425   13.06846839030146
H         0.91196989368771   18.46676883262217   12.75146548072891
H         1.86285749888537   17.55134728832164   13.92413766927355
H         0.29538137615180   16.93962004453224   13.38730276837607
C         1.08848501594188   13.16914118265141   11.19242993189987
C         0.46999961780880   12.84108075209863    9.99407685410261
H         0.93290749561121   13.13921159996909    9.06372359606471
C        -0.72086573243228   12.13768850691502    9.98756051196066
H        -1.19313549106595   11.90432628702695    9.04408792778286
C        -1.31333044867253   11.73240122926406   11.17534217121896
C        -0.66906259528526   12.02938732471516   12.37383045122606
H        -1.10529648254187   11.69910693848948   13.30658116375689
C         0.51856521652772   12.73122860639650   12.38700882893533
H         1.01183218888286   12.92650056018197   13.33005529914226
C        -2.59839573598683   10.96343844113071   11.17879637171016
H        -2.40193378728233    9.91117005067298   11.38578581412096
H        -3.09541342383102   11.03418653358649   10.21466782483139
H        -3.26896053324564   11.33431875617423   11.95185217024616
C         3.63731410378869   12.81237524485690   12.06629562249316
C         4.01521755478726   11.73490846173941   11.26528789647653
H         3.72846062409335   11.74350615250904   10.21889505885726
C         4.75010833787969   10.69464812582675   11.79121156924211
H         5.04347734378370    9.86782116285907   11.16050179591569
C         5.12739661828967   10.70112001025661   13.13232637429817
C         4.73711084420901   11.76990078536289   13.92659686981269
H         5.01895228795832   11.78936421658500   14.97052560892350
C         3.99560578262681   12.81760794915028   13.40724612916045
H         3.71819109778523   13.63619703474994   14.05519949383998
C         5.94456336177420    9.57641153911052   13.68948689019716
H         6.92220261329055    9.54859817691840   13.20866825064500
H         5.45634447783602    8.62151826993304   13.50007418655287
H         6.08834239541376    9.68968696079297   14.76122613288558
C         5.55536611155910   16.34142351831684   11.81027870185413
C         6.07064312983118   17.39059888335239   12.56975414700786
H         5.76717709872131   18.40837769649146   12.36145884072852
C         6.98125202728382   17.14061441911543   13.57500875497230
H         7.37268211169159   17.96238387065752   14.15880751340547
C         7.41142164372628   15.84416454319931   13.84738260371179
C         6.91607011467775   14.80616865905881   13.07102913897518
H         7.24208998401144   13.79198660751012   13.25394432239271
C         6.00451695358826   15.05331395985884   12.06046931262218
H         5.63209619656437   14.23427877711372   11.45970661434746
C         8.40665587019652   15.59194129371209   14.93760560545808
H         9.39886130824996   15.90935712710423   14.61630607936214
H         8.45081314674991   14.53474816727356   15.18694957252784
H         8.15075757227401   16.15707842674997   15.83215817715081
C         5.29214844245976   18.00160958754192    9.67152727092654
C         5.04172984955809   19.36572518657798    9.73315681131982
H         4.21257767724947   19.75658330182482   10.30574768765258
C         5.85497471382129   20.24674622234804    9.04188872819978
H         5.64891818296443   21.30732902611336    9.09489884299260
C         6.92221305773768   19.79291506403965    8.27964218564133
C         7.17240198460923   18.42436806028423    8.22960190702021
H         7.99700863727445   18.05510949658686    7.63731982536465
C         6.37015622447576   17.53974183520639    8.91681160363597
H         6.55855748461537   16.47358414313531    8.86456043571696
C         7.79319265495454   20.74447782268497    7.51815048909166
H         7.74075759969928   20.52952935362790    6.45121520438758
H         8.83271824026370   20.63657005378364    7.82663077111884
H         7.48589384666886   21.77489851574233    7.68159778481994
C         1.47432152381763   17.86736636849777    8.43961631171694
C         2.59047280318981   18.46026968373148    7.86645533866856
H         3.51437617269095   17.90504571732099    7.78789088626601
C         2.51468099099792   19.74384753950372    7.35445992674014
H         3.39712741087200   20.18814763406608    6.91675444830138
C         1.32646450792561   20.45819233467065    7.39251320956856
C         0.20132619314139   19.84616872460545    7.94033706015604
H        -0.73865562737738   20.38096005100522    7.95739024280110
C         0.26767519757109   18.56729702716153    8.45161525944658
H        -0.62663404668334   18.10366861985818    8.84737901973108
C         1.23275712415979   21.84249228775366    6.82773250512526
H         0.70915265048895   21.81884103124264    5.87168885816435
H         2.22196249857632   22.26263666630965    6.66383587300578
H         0.67527029222234   22.49694013639969    7.49584444250598
C         0.15325324597844   15.50092507421620    8.19639291182363
C         0.47392363794904   15.19722791916547    6.87332199340845
H         1.49165698084091   15.35714753287800    6.53350602976942
C        -0.48275571850801   14.68459773936850    6.02401843487603
H        -0.22563448460853   14.44845548058964    5.00132690627000
C        -1.78221881668943   14.46046270573325    6.47273634506549
C        -2.09411605864625   14.76952324787989    7.78893379399343
H        -3.09855343343123   14.60124333471414    8.15345421539453
C        -1.14115005402300   15.28898207087705    8.64871190756909
H        -1.42020460917272   15.51110618415090    9.66891770572241
C        -2.81224343628250   13.89481247783713    5.54309291706821
H        -3.76728210756168   13.76671746567202    6.04701569422920
H        -2.48670873992336   12.92831834045224    5.16008827298267
H        -2.95504421416646   14.55690884661552    4.68977921077010

