64
CSD_code = LADPOY | q = 0 | S = 0 | Stoichiometry = C24H34N2OPtSi2 | MND = 5
Pt        1.91062033968284    4.03922651492446    5.09250027936845
Si        2.70632556410926    1.67000800502418    3.02224662869676
Si        0.75340278350496    3.66501467367389    1.98001169327416
O         1.56591109471544    2.23979431053599    1.98533592245215
N         2.49782834918006    5.69521476418148    7.61610286788138
N         3.54450965815787    6.62192641643453    5.99914686022206
C         2.77650309208456    5.55471748515540    6.29603685926515
C         3.01196043083079    2.40451594901904    5.80588122362885
C         2.12720641493751    1.95349288509348    4.79369142525531
C         0.26122963840583    4.12467019829892    3.74135520210690
C         0.52717745674620    5.39543691368542    4.29844220224560
C         3.76692306867191    7.41738817501692    7.09067689943557
C         3.10652514704530    6.83841637298506    8.14093512551741
C         2.92263574335079    7.13809945107170    9.51238234520929
C         2.15279272092196    6.31538869095859   10.26894606518971
C         1.53378197760285    5.16917612443184    9.69051289174753
C         1.71692958478833    4.88429102276362    8.38184538803756
C         3.99920016948417    6.89062697481503    4.68176846679403
C         3.35390741656961    7.86783760562525    3.92396653982556
C         3.77181890808583    8.06851206263241    2.61766904316154
C         4.80623041125507    7.32689642127628    2.06376021771511
C         5.45253108460660    6.38730467598881    2.85400844749637
C         5.06733292633820    6.15749719630170    4.16589850586470
C         2.24498630055919    8.68830056698818    4.51113604280512
C         5.19587033826049    7.52379233621236    0.63156521483886
C         5.78238069963813    5.16337677127657    5.02728799058231
C         4.30690843662452    2.66218818099850    2.71885318530225
C         2.89696543173938   -0.16666810165678    2.57671152784181
C         1.87231901333714    5.01255719019641    1.22306494093456
C        -0.76783249062054    3.34801063558913    0.88518724023431
H         4.07678284255533    2.43292006822791    5.58620371781985
H         2.80758982480385    2.12537558096215    6.84163318629863
H         1.23507286952258    1.42048088119407    5.12498592386366
H        -0.57608447893795    3.57441449290183    4.17485952640318
H        -0.16346466346195    5.80093749187049    5.04139245831267
H         0.97466873272545    6.15465383246000    3.66253903502167
H         4.36604840703606    8.30253194588079    7.04478106623970
H         3.39770056839613    8.01683672962461    9.91842357407301
H         1.99398520070012    6.52020495763649   11.31591686482651
H         0.91590039364778    4.53393223474834   10.30293453830613
H         1.27489361950307    4.04313240046224    7.85906736094436
H         3.27115511284277    8.81200141355236    2.01439454912058
H         6.26860942929581    5.81414704993045    2.43883955253052
H         2.65105387383183    9.45989461246470    5.16642688930638
H         1.57029033553336    8.06928402536855    5.09870466726870
H         1.67580513642347    9.17672656656545    3.72472937950940
H         6.21329251119602    7.18512182752544    0.45327754822420
H         5.11440452043895    8.57042148716399    0.34670549749389
H         4.52808455549887    6.94818466144098   -0.00961523167767
H         5.08033050594311    4.41549489902099    5.39395356405757
H         6.22615519509532    5.65852857778256    5.89149175557211
H         6.56837715330929    4.66504885270716    4.46740478350482
H         5.16463917476761    2.22164481571389    3.21623605205628
H         4.18298439292866    3.67762428280436    3.09130060062034
H         4.53206412164455    2.72420546619474    1.65870932647636
H         1.96388701626963   -0.70346410621789    2.70584237794372
H         3.64540006241351   -0.64147041850737    3.20099154288621
H         3.20186812055038   -0.27992152627502    1.54264125134241
H         2.66489056169377    5.29762729542973    1.90924159283839
H         1.30737592572561    5.90662545612556    0.97946704939767
H         2.33759141569351    4.65465008500398    0.30978969879851
H        -1.37140533141405    4.24378888505742    0.79055188110629
H        -1.39532337786700    2.56350472791014    1.29334751010215
H        -0.46550543893707    3.04239997777291   -0.11009633352502

