50
CSD_code = LADTIW | q = 1 | S = 0 | Stoichiometry = C22H22Cl3N2Ru(1+) | MND = 9
C        11.01088412233022    6.86727452456653   -1.24165950633020
H        10.29885006688599    6.19219529828123   -1.69935548415078
C        11.47340354417226    7.97556162385087   -1.92552012103950
H        11.13687008241743    8.16239353259869   -2.93193126656388
C        12.36184563553835    8.84412553606874   -1.29518686326796
H        12.72943370101554    9.71811514174534   -1.80828853657291
C        12.74806413555184    8.57279630843906    0.00068164146581
H        13.41651704134829    9.22397236578088    0.54010326021724
C        12.24444140478762    7.43297587171147    0.63436755414944
C        12.52231788190748    7.02034451315690    1.97470957676130
H        13.18479603937240    7.56615423261965    2.63456436741142
C        12.04110301087969    5.39520217811719    3.61795035071588
C        13.27818230820189    4.93972318627726    4.08822270293521
C        13.36729142942469    4.35789621659588    5.34437773778847
H        14.32279250613432    4.00653390420165    5.69993515791422
C        12.24173822926229    4.22754257482758    6.13690224303039
H        12.31727893233945    3.77761828200596    7.11355085937117
C        11.01006960800870    4.67537807557752    5.67005475541650
C        10.90700502411809    5.25761394906654    4.41666505946261
H         9.96069636820335    5.63490982772219    4.05134497043057
C         7.87113089804483    3.47037163789476    2.59402163779566
H         8.12414604014995    3.18948041975167    3.61309668634220
H         7.09134686026699    2.80513865633663    2.22430477017467
H         7.46406639948295    4.48278862646428    2.60009878117006
C         9.06571647185530    3.40969231757884    1.70143475503781
C        10.32160497764095    3.00984627973733    2.16953045497375
H        10.43466223498209    2.68839900727843    3.19855451370162
C        11.44372625926477    2.98164602782871    1.30703032270070
H        12.39262028512731    2.62990647102677    1.69554418951872
C        11.31169624850585    3.26163292657078   -0.07125335348931
C        10.01358354241328    3.58041343644722   -0.55957591008469
H         9.86357458654277    3.68676132970250   -1.62926274719004
C         8.92932255960702    3.70104714657297    0.30721924256217
H         7.94236938981990    3.92702469984709   -0.08379562543806
C        12.47395101361735    3.10357726502010   -1.02137702099783
H        12.19881869163351    3.55974563784256   -1.97921164063478
C        13.72854738899575    3.80738959974568   -0.49890822009729
H        13.50072263936067    4.83442313668179   -0.20544671448822
H        14.48692367062468    3.83263103533229   -1.27636802856127
H        14.14717380357671    3.28633898778761    0.35801645900645
C        12.73933163361369    1.61245629772139   -1.25767908703789
H        13.02625430272125    1.11955153948562   -0.33203902857724
H        13.54563822425470    1.49237244101049   -1.97554308404606
H        11.85261272781280    1.12077173651032   -1.65073422504035
N        11.88666169093630    5.94893041966231    2.34389731540426
N        11.39140664569682    6.58336855107144    0.00085117652811
Cl       14.67792875803098    5.05048735640665    3.07830434529714
Cl        9.59931574603105    4.49979116800777    6.63804022589024
Cl        9.07336146591848    6.70226301777976    1.72172293653125
Ru       10.65280377156535    5.11052568368846    1.11123841390404

