59
CSD_code = LADVEU | q = 0 | S = 0 | Stoichiometry = C31H19IrN4O4 | MND = 6
Ir        5.90098467613527    3.37087797294503    2.40033016525416
O         4.39972754399750    4.89989558962751    1.98893206001045
O         7.52698577096775    3.74997097686950    6.12776370540685
N         7.09290571006325    5.01576536957970    1.74129501583964
N         6.26323836807655    3.92392221711219    4.30046000155906
N         5.45055758271708    2.71731615886932    0.52204567872991
O         4.17982771695856    6.94743155844972    1.14440794316210
C         7.29013620133041    3.32585172464747    4.87962602584805
C         8.41820859066609    5.11478529992406    1.63942709325067
H         9.00042008429848    4.25419335027091    1.93947251748405
O         3.94974141896826    1.64251676004408   -0.72790097117522
C         4.39920322644000    1.91541526125703    0.50101259072839
C         4.54800216873430    1.93245847656800    2.86872155731630
C         3.87559571858074    1.41722963195444    1.73619439974365
C         8.05606477220789    1.15787990659743    2.05534195135128
H         7.67540409539149    0.95182504264530    1.06492276471925
C         5.76109409589933    4.80754605717413    5.22539737507334
C         7.42991840264705    2.11470865967906    2.84879317868565
C         7.99302863445686    2.32432956070087    4.13445715457956
C         5.72389135378038    3.01350482015589   -0.79289150805056
C         6.36536271699622    6.07047663884913    1.36987373137686
C         4.69010206811034    5.69058185464921    5.19055451979207
H         4.07000139329677    5.76324227286417    4.31220116340983
N         8.29590425904326    7.32362590572144    0.77808911214295
C         6.34394384856270    5.45000981462639    7.50671063261110
H         6.96788055806691    5.35372493351062    8.37997754793652
C         4.82782433322843    5.97842392800794    1.50284665174781
C         4.09479928604298    1.48978731359567    4.10672556333131
H         4.56291865180358    1.84457402597752    5.01425172221757
C         6.56851281414570    4.69221062916025    6.37319770602312
C         9.00922740174908    6.27186985716469    1.15801345576580
H        10.08292098202656    6.36060206772948    1.06919933793842
C         4.76608722654515    2.33301179029295   -1.57090223336738
C         2.81432903963431    0.51736771017107    1.83123291266784
H         2.33087774707720    0.16286435358617    0.93294415397210
C         6.98387170659513    7.22195585594079    0.88698126779044
H         6.38128495521108    8.06653772310500    0.58461400199574
C         3.04380443462371    0.59158586287899    4.21062759071034
H         2.71556651701848    0.26744107858631    5.18815959629284
C         6.70222437446038    3.78282621380662   -1.41015294189584
H         7.45711504715030    4.29405385250095   -0.83594104773547
C         2.40093471895633    0.10510819154498    3.07966478174068
H         1.57983268093660   -0.58880016115277    3.17974774534210
C         9.16291472202722    0.45547450983537    2.50642673786400
H         9.62416919628333   -0.28145040908106    1.86446425846947
C         4.46913224070707    6.44688767029302    6.32421814001742
H         3.64862731737776    7.14746021309166    6.33839071408978
C         9.10525517269616    1.62131446928248    4.59568379418767
H         9.49311006100122    1.82061821882290    5.58367520309227
C         4.73933773111060    2.40893885272047   -2.94985770869700
H         3.99411999470584    1.88425479176051   -3.52462443705947
C         9.68988822293779    0.68314734950322    3.77158415859400
H        10.55246912429570    0.12713134563345    4.10660243585128
C         5.27764654774231    6.33113510195429    7.45575602936665
H         5.06453578303607    6.94446036552444    8.31767695498892
C         5.71222382859398    3.19257246738252   -3.54435038035278
H         5.72850992939022    3.28761344161948   -4.61890448298563
C         6.67390533468374    3.86126485621560   -2.78849310993972
H         7.41659189981202    4.45747064725916   -3.29637397881298

