65
CSD_code = LADZUM | q = 0 | S = 0 | Stoichiometry = C28H28ClN5PdSi2 | MND = 4
Pd        6.63271115066043    1.67091064285816    1.26041931322563
Cl        5.55321855829700    3.06829174975253    2.69018043414263
N         8.02443402199381    3.08872020716697    0.77346915180916
C         8.36246917143666    3.95783918388731    1.73101096474876
C         9.42715285324070    4.84714525167959    1.62924016224787
C        10.19675526671597    4.83517912923525    0.45563927377786
C         9.85936895721791    3.94682650968430   -0.52737438714825
C         8.77213993761762    3.06132369216060   -0.36270457001893
C         9.70540129141569    5.73742989970494    2.68826871110229
C         9.95728067126408    6.50650396967128    3.58713322313531
Si       10.28993403274275    7.68866119263935    4.98397133969437
C        11.93728594129744    8.57665335263498    4.61825540383562
C         8.84727339319076    8.93100110399813    5.05150775808277
C        10.40326455359523    6.67900830643903    6.59591288863977
N         8.53543112081068    2.26102041302685   -1.42353462991255
C         7.78646129766067    1.20654555384437   -1.41933507948767
N         7.16207493845185    0.61809297299295   -0.36450520150286
C         6.41178338281376   -0.42921800155193   -0.80120429854959
C         6.63801086150865   -0.60300143145145   -2.23916435060477
C         7.50626865389426    0.42614447139642   -2.62814898877855
C         7.91906181069827    0.55693788414661   -3.93855757582526
C         7.44282323601532   -0.37062575077903   -4.85632159890436
C         6.58215034073492   -1.39025322265967   -4.47106070469094
C         6.16436888813434   -1.52255272534267   -3.15295145245374
N         5.63177996731583   -1.20186444525808   -0.11675083232565
C         5.35422555500773   -1.06733306548490    1.19779317326694
N         5.58032262594825    0.05620905389961    1.92956076463094
C         5.26854565347338    0.03889004804632    3.22874633372244
C         4.69905471934519   -1.05469998659029    3.87316828067552
C         4.42791417343710   -2.20626834731515    3.11857344353752
C         4.75608538524641   -2.19999232798281    1.79103305533499
C         4.40885207534909   -0.98508741939751    5.25249799634894
C         4.16453376178464   -0.94098975438693    6.43630993061450
Si        3.80869912044604   -0.81909164910914    8.25790209239926
C         5.28191751747733    0.06793815244934    9.07831742029625
C         2.19815968759882    0.17416545372957    8.47959529626996
C         3.61396681129921   -2.59072511228309    8.93580187238305
H         7.74980136928436    3.97459303596183    2.62590761053060
H        11.02724569136758    5.51570815561414    0.34354134201065
H        10.40787863242752    3.87920333165170   -1.45248913012789
H        12.17943602366248    9.29715268089732    5.39421352076712
H        12.76079486038848    7.87140133863195    4.55674331474251
H        11.89384215705854    9.11285933649116    3.67494459326937
H         8.98239937979605    9.65463184612030    5.85031206139790
H         8.75874622591269    9.48162364516025    4.11987224164687
H         7.90275067289192    8.42346508351265    5.22207904287437
H        10.58717987600502    7.32008642033473    7.45347259096764
H         9.48160523296330    6.13601294133671    6.78190881757619
H        11.20827478489178    5.95161257789640    6.55019017190005
H         8.58469816113742    1.35370282465601   -4.22940062947145
H         7.74526037928385   -0.29757106971064   -5.89057054389720
H         6.23013881137532   -2.09223440722879   -5.21255612463756
H         5.49391384738386   -2.30910966856934   -2.84586400641499
H         5.45696744581701    0.94291512313561    3.79818066673708
H         3.97413961189079   -3.06731754004082    3.58563832761437
H         4.58835647765877   -3.05319549347591    1.15452047512304
H         5.13150458454253    0.18311288154339   10.14803180323602
H         6.20526244765877   -0.48502657497474    8.93329432274324
H         5.42433089807411    1.05839219256549    8.65687991182905
H         1.94450048415944    0.28951683153551    9.52960425491175
H         2.29023558112523    1.16767442382739    8.05149154023417
H         1.36176622762538   -0.31653778298707    7.99086757174706
H         3.40549970129555   -2.58593365947142   10.00189380372035
H         2.79839599282178   -3.11303930152618    8.44453966217974
H         4.51699305635506   -3.17363412836231    8.78055817303370

