96
CSD_code = LADZEV | q = 0 | S = 0 | Stoichiometry = C48H38Cl3N4P2Tc | MND = 5
Tc       -0.45708428937326    4.92047587698085    4.85765521316065
Cl       -0.66159807824777    2.72988938343041    4.02280913337441
Cl       -2.30710028017270    8.17778114678197   -2.17674167334332
Cl        2.15490661574812   10.49309019318143    9.48240559233091
P         1.76541262677077    4.92244987040854    3.93735608860988
P        -2.79040274324777    4.73827869028238    5.40436062988780
N        -0.72636931615579    6.45032592484064    4.02913379178302
N        -0.79220965379452    7.54407455773808    3.47286643960394
N         0.21232042282209    4.83957637829256    6.53144598605964
N         0.82516969249507    5.10329616166992    7.54566294018369
C         1.73153221501519    5.48416477061174    2.21031014777248
C         2.22706111086466    6.71295700340660    1.79290159648855
C         2.03942279725747    7.12037549701455    0.48283259856366
C         1.36428098261157    6.30945490947145   -0.41258430905748
C         0.86964307360234    5.08180217100584    0.00051508703142
C         1.04237227068833    4.67361027937233    1.30812540404574
C         2.65696197919277    3.34312188440165    3.89117704361098
C         2.59118395167617    2.55590064064512    5.03853629629435
C         3.24413991329520    1.33917870327907    5.08178620755615
C         3.96427355026588    0.90149132240403    3.98094719411129
C         4.03481401192947    1.68439628940486    2.84062885183320
C         3.38419380391002    2.90508367291344    2.79056168757466
C         2.94164608082364    6.03604291153021    4.76982538250162
C         4.22742780307384    5.64827602829388    5.12760839080468
C         5.04652053504908    6.52647641012585    5.81642630076392
C         4.59329949085210    7.79266885649071    6.14487537358257
C         3.31480514678996    8.18644546586189    5.78259769468034
C         2.48732945639789    7.31036966492050    5.10691215743057
C        -3.82376581004816    4.94585299061716    3.91849581541664
C        -3.77100012457874    3.93528286423333    2.95813204894395
C        -4.44338182769683    4.07986232819305    1.75960907516558
C        -5.16180055622181    5.23704144562971    1.50149751541098
C        -5.21126593008968    6.24482339600059    2.44929101872031
C        -4.54630479898658    6.10422787537046    3.65505655226425
C        -3.48867315235144    5.95128263932266    6.57248944771618
C        -3.11877412286170    7.28565824963044    6.40987127451972
C        -3.59603797115750    8.25142520129784    7.27553225510041
C        -4.43852990361689    7.89333759204042    8.31639594917822
C        -4.80352711103890    6.56869572887131    8.48558159926533
C        -4.33231904230225    5.59763597892835    7.61852245680863
C        -3.35107799828584    3.15171373260229    6.09076060543565
C        -2.49004610486202    2.48832104224798    6.95965880847849
C        -2.86794096786033    1.28497728824896    7.52571514320778
C        -4.10630920772431    0.73891310146074    7.22849540957681
C        -4.96898160276950    1.40036232976490    6.36941128863641
C        -4.59737382167695    2.60537036425449    5.80055682027910
C        -1.16420536431533    7.64659355378982    2.13813347467656
C        -1.71766577052374    6.58444680103008    1.41775273947267
C        -2.07819353178719    6.74866005336609    0.09862729813385
C        -1.87516472917951    7.97562955454476   -0.51353903673508
C        -1.32814369541336    9.04201143383033    0.18492785073119
C        -0.98033460772377    8.87916995089157    1.50926546796397
C         1.10714888855644    6.39340434030452    7.97530749275254
C         2.18326599622150    6.56539117158720    8.84639800608089
C         2.50809582092339    7.82474860926108    9.30558234343868
C         1.74258128770023    8.91235676599686    8.91200730553452
C         0.65532011432971    8.75417931787652    8.06572960584127
C         0.34198487120909    7.49752813983414    7.59304860596965
H         2.75277345547857    7.34931405395684    2.49036010698705
H         2.41924260434125    8.07923805473086    0.16247423110605
H         1.21608169149063    6.63550349458050   -1.43108532640003
H         0.33967430443074    4.44973724299100   -0.69661497571451
H         0.63994991554544    3.72705588991882    1.64718118760280
H         2.01830684506498    2.90613825091412    5.88847175795812
H         3.18735185197303    0.72716089405312    5.96990816788619
H         4.46868408954653   -0.05314627727559    4.01086859594526
H         4.59653932012086    1.34213521053232    1.98355767477271
H         3.43815395841561    3.51467175538639    1.89905941677244
H         4.58608509127106    4.66057562193209    4.87385241757326
H         6.04259229217342    6.21795132865954    6.09843865556442
H         5.23405132318716    8.47267660753457    6.68591081766404
H         2.95928718143632    9.17273638751596    6.03922679588132
H         1.47888077458869    7.60021535449393    4.84158798843704
H        -3.19048197964678    3.04352986375576    3.15524104286231
H        -4.40046977378563    3.29189519827839    1.02178461790653
H        -5.68006117515078    5.35427132275994    0.56137755244496
H        -5.76766815493928    7.14855377412159    2.24891735084841
H        -4.59045949177055    6.89492597894219    4.38993060415244
H        -2.45406379360198    7.55513450954175    5.59865130662734
H        -3.30830431770173    9.28373523809969    7.14246276583142
H        -4.80701747174962    8.64631040609582    8.99693367852835
H        -5.45768721548965    6.28757675810888    9.29782523635214
H        -4.61862607537685    4.56501705218094    7.75842105623323
H        -1.52089989197278    2.92019129404243    7.17793274785947
H        -2.19494258189351    0.76868756993487    8.19424907295614
H        -4.39936141529331   -0.20484338458392    7.66438342365041
H        -5.93526754849698    0.97513851495792    6.13972306813788
H        -5.27159843925627    3.12158772081875    5.13074439451038
H        -1.86124615526736    5.63027122292368    1.90566876398933
H        -2.51115285033973    5.93042363491306   -0.45566569793417
H        -1.17929039160552    9.98935584052341   -0.30974190297149
H        -0.55258513552173    9.69403479660818    2.07166399164642
H         2.76743785394177    5.70658874779511    9.13704018573352
H         3.34912934735366    7.96834564714144    9.96595400034660
H         0.06685042805064    9.61086603218737    7.77657584466793
H        -0.49612086483670    7.34707988513024    6.92757789876280

