37
CSD_code = LADZIA | q = 0 | S = 0 | Stoichiometry = C18H10Br2ClN5Pd | MND = 4
Pd       12.88471175430374    2.10151808464745   -1.40780945003397
Cl       14.03881414200404    3.41810793094608   -2.84056811152159
N        14.51882429009077    1.83207329319946   -0.21620941408487
C        15.71297880555588    1.80524709929338   -0.82274460718161
C        16.87423374899969    1.43908975157163   -0.17340195855999
C        16.83931403146397    1.07826652810968    1.17297699580841
C        15.62104634612878    1.10129038037898    1.79645158406894
C        14.45218743661229    1.46826734845892    1.09337051186060
Br       18.50875005138588    1.43112053814386   -1.12887987415907
N        13.32829681741645    1.46701411353558    1.83726665903885
C        12.11880361394726    1.49259112414578    1.37808563650895
N        11.71039379088115    1.43613436311190    0.08261204705748
C        10.35821700372576    1.56488314220013    0.02298414315219
C         9.82694128752600    1.60608730759551    1.38862102259306
C        10.93746784685561    1.55995473647545    2.24333227895612
C        10.78673081683273    1.58949651543814    3.61469983649346
C         9.49261259156881    1.66514233048963    4.11541121774522
C         8.39285507694396    1.71109988428478    3.26906882181840
C         8.54271796360052    1.68301657576649    1.88775500270454
N         9.60565989069889    1.61851991515090   -1.02828663941593
C        10.03869132352145    1.64405920673245   -2.30441711225141
N        11.30525923662455    1.95750477329567   -2.69070490302812
C        11.58703873419555    1.96178833680783   -4.00026673955042
C        10.64708914214907    1.67591733655675   -4.96920312321859
C         9.33685067898671    1.36921794206884   -4.60410342509429
C         9.04433807264913    1.36152201861843   -3.26700693611164
Br       11.15589023568003    1.70318992730293   -6.79265988152305
H        15.74796025255553    2.10783361061103   -1.86470679176510
H        17.74046147516642    0.79581353481428    1.69452023224197
H        15.50653155068784    0.83250836314842    2.83335183712002
H        11.64621321423161    1.55620179324706    4.26459669735474
H         9.33823631172536    1.69066447418850    5.18382709608439
H         7.40187160904119    1.77172404157404    3.69365818965063
H         7.69438456128351    1.72104714885160    1.22363301878935
H        12.60018935705772    2.22287808626610   -4.28969010116523
H         8.59026845251011    1.15027078663440   -5.35144714334098
H         8.05786848539208    1.13053765633795   -2.90091661704088

