88
CSD_code = LAFGEH | q = 0 | S = 0 | Stoichiometry = C38H39N5O5Zn | MND = 5
C        11.86480567690535   12.57725597257410   16.92417418065084
H        12.36466185350416   12.77280078432680   17.86501427374632
C        11.61413128000824   11.28291479481910   16.50380156632712
H        11.90613278460307   10.42957938795294   17.09684011778891
C        10.96841219363243   11.09140492931754   15.28414879575265
C        10.60808348866285   12.21949766321316   14.55003564823579
H        10.10738970602684   12.09873946257085   13.60401924941496
C        10.91017326857755   13.46574146433161   15.06952017430939
H        10.65011831009146   14.37144501801918   14.53609187523698
C        10.68187121370867    9.72337819915856   14.79924986544299
C         9.17493896474178    8.17350076606801   12.16619840986717
H         8.84986174063873    9.05177027519801   11.60583616718050
C         8.84061644810861    6.89099815628093   11.64617346818281
C         8.08463538814576    6.83553298398983   10.46343738548475
H         7.81022176297782    7.76667174803649    9.98788001802901
C         7.67813542900034    5.65011033914533    9.91034764762512
H         7.08962765750619    5.61517431159995    9.00780034410205
C         8.03216321050956    4.45454721598311   10.54676976874131
C         8.79464968160837    4.46007824386856   11.68676797432881
H         9.07343326953033    3.53612003135569   12.16898970341302
C         9.22558143209889    5.67061093717577   12.28209263455489
C         7.12749696636550    2.25094100112219   10.64284601985427
C         6.75714998216995    1.11712292478990    9.76789608937085
C         7.04942075368678    1.09755572010386    8.40836590473203
H         7.57653172083691    1.92817703505856    7.96546315490565
C         6.67427062365462    0.02611920200255    7.62091629895159
H         6.91816838758058    0.03712285679377    6.57023074743960
C         5.98828941299303   -1.04912228148267    8.18381195968146
C         5.70266830163056   -1.03374068607511    9.55425670836238
H         5.17533591520362   -1.87563023630500    9.97429017014803
C         6.08387826418742    0.03191100037461   10.33272792469118
H         5.86580141589368    0.05393391324308   11.38951413616632
C         5.78390351831682   -2.22330559554983    6.11288303801530
H         6.86304854622637   -2.24161022139772    5.90677642076519
H         5.34172054596401   -1.35439046432676    5.60648394777906
C         5.13016887714789   -3.50593043245454    5.60883080940910
H         5.18364537994225   -3.51682373771527    4.51858715615746
H         4.07867006943016   -3.49434097742586    5.90019907408175
C         5.80123655381430   -4.75373693549493    6.17758460799143
H         5.77379381670771   -4.70170971999627    7.26700762704256
H         6.84950489757274   -4.77332867375500    5.86961314326791
C         5.11112949698625   -6.03157655823213    5.70829078204807
H         4.06396677097444   -6.01048442463644    6.01854504952183
H         5.13048105486050   -6.07306773816114    4.61635401740913
C         5.77760525653159   -7.28399855544165    6.27221175998052
H         5.75988391879260   -7.24132228564574    7.36368986007737
H         6.82463813171822   -7.30803708051625    5.96059836066382
C         5.08345433706396   -8.56123208705012    5.80567713294436
H         4.03700627024991   -8.53815265245153    6.11918093019055
H         5.09924433978556   -8.60244468933499    4.71381141116585
C         5.74819791457654   -9.81646327522992    6.36560141876526
H         5.73094247350563   -9.77681844978944    7.45717439922330
H         6.79466376870255   -9.84010144933763    6.05269468751272
C         5.05026263528921  -11.08627919076387    5.89419687177650
H         4.01055476298904  -11.09127607468900    6.21450965352780
H         5.53948354528981  -11.96753023829669    6.30270793271264
H         5.07308938263626  -11.15326184456048    4.80852926809787
C        12.54374568939178    4.86488894470026   14.55986131936503
H        11.72955519449090    4.41181050301141   14.01526461213723
C        13.73063249922549    4.19167754157697   14.79627577680491
H        13.86017528292007    3.18215789326643   14.43920054097080
C        14.73904108672700    4.83915094834963   15.49219924910924
H        15.67883062573453    4.34559046335722   15.69178679650452
C        14.51336353981134    6.13628638187173   15.92454020977840
H        15.26844856810733    6.68144730098950   16.46874123699151
C        13.29408732655084    6.72986840279390   15.64386600913815
H        13.06928575276963    7.73759566475034   15.95952687309872
C         8.54219977773572    5.26581284822641   16.00493438545105
H         8.65534908158515    4.74081788808159   15.06834074614272
C         7.68073291768009    4.81206090459290   16.98953528842291
H         7.10450414416888    3.91474513795561   16.82920209571907
C         7.57546812613342    5.53296234467485   18.16827258985451
H         6.91124096700795    5.21086035987248   18.95669120690531
C         8.34200587321305    6.67895607977665   18.31134649351048
H         8.29346131254660    7.27346200205745   19.21011723041143
C         9.17684970676351    7.05596582661272   17.27322850325492
H         9.79159004352204    7.94182929036884   17.33536601518974
N        11.52394181073615   13.64956836923666   16.22877155573608
N        10.05441925686184    9.64791224506329   13.65141106173365
N         9.82431403940680    8.36791372745273   13.26648429040119
N        12.32967102746056    6.10835432155614   14.97482955501854
N         9.27525009534375    6.36538034402392   16.14254488909272
O        11.04931326638538    8.72780937754665   15.51090506113097
O         9.93835699226840    5.59965989948315   13.35435048409135
O         7.61325628328251    3.28260372518683    9.92852384879862
O         5.55778730319144   -2.13723559802006    7.50694870061562
O         6.98160057232953    2.25325645805160   11.84141768654659
Zn       10.48396906678528    7.04019062126746   14.54226794521689

