49
CSD_code = LAFJOU | q = 1 | S = 0 | Stoichiometry = C20H24ClN3Rh(1+) | MND = 8
Rh        8.05685531083980   10.48947665032836    3.99831097138295
Cl        9.37311473410861    8.83748860346146    4.93644830235118
N         7.83337751745915    9.21912184746719    2.37486625372512
N         5.51234107690071    8.96273019667927    2.68910126764803
H         4.66273324311276    8.65133373095890    2.23532681476970
N         6.44603175964888    9.48075110892400    4.79288036845654
C         8.93091008526670    8.97530857162079    1.65047031876444
H         9.87017246368132    9.27109932036920    2.10134189884708
C         8.89022401601350    8.36254544835924    0.41697272346059
H         9.80042809856772    8.18299650381418   -0.12963853484554
C         7.65372773406914    7.98760235988002   -0.09865223935676
H         7.57769477721406    7.52029393466705   -1.06754979670804
C         6.52454717931216    8.20192320724446    0.66140881405896
H         5.55168913646373    7.89858015096442    0.30739432323474
C         6.64864837538251    8.80398162396652    1.91991478591883
C         5.41537766775718    9.04256753829257    4.06442461030841
C         4.21313630454537    8.65426638049709    4.66970633396197
H         3.38802546535555    8.32763224395859    4.05620197820401
C         4.10877209294500    8.67632696469988    6.04324755885354
H         3.19222937971556    8.37526909968085    6.52504854055478
C         5.21271980615212    9.07052818513895    6.79239915719362
H         5.18541082876675    9.07054570676448    7.86889088681253
C         6.35282384787501    9.46583330481330    6.12747547502023
H         7.24321648179237    9.76452052590726    6.66693523248867
C         8.80898537393628   12.23834112924191    2.87301725599876
C         9.61008247260543   12.02538233075411    4.02888607508451
C         8.75418722565845   12.15768113537827    5.19126625251434
C         7.44375527097643   12.49713854157665    4.73290033838139
C         7.45488836193750   12.49102169692533    3.30124395213107
C         9.29157119470211   12.35257647807845    1.46443287312159
H         9.45792120244753   13.40688525438832    1.23770675776950
H         8.55970909955323   11.97077019346108    0.75510146479051
H        10.22981211379648   11.82434988999656    1.31637294885972
C        11.09239999718508   11.87473413510354    4.09797584870033
H        11.52776197133696   11.72746236358489    3.11355174370546
H        11.36652865796217   11.03310122948938    4.73217241310345
H        11.52183652987184   12.77691122468611    4.53491581789652
C         9.25980827439402   12.18928688863361    6.59620775935404
H         9.84497695955688   13.09770594432971    6.74492945899490
H         9.91003352281541   11.33834341341050    6.79131711887308
H         8.44665048355419   12.18591147996889    7.31728918476215
C         6.28483378693462   12.89199355991259    5.58645819431961
H         6.35274195291519   12.46087507657198    6.58230396936237
H         5.33700517985729   12.59574629347548    5.14120035445403
H         6.28136536902997   13.97840055732336    5.68846102846483
C         6.33999445502371   12.94477654841818    2.41562679942617
H         5.36941095811100   12.71959516295864    2.85168613880072
H         6.39852814762557   12.47982166155455    1.43393365162017
H         6.40470405526702   14.02536460232086    2.27921655440635

