73
CSD_code = LAFPUG | q = 0 | S = 0 | Stoichiometry = C34H32Br2Cl2P2Pt | MND = 4
Pt        1.10934524777223    2.09965926413360   10.76541262037935
Br       -0.68574034862714    3.35255837168964    7.71960737907842
C         0.28012043470012    5.94979021805407    8.30124769714576
H        -0.53294443159704    6.27168424225740    7.66067786690006
P        -1.11389753834036    2.38369600937439   11.11055161787294
Cl        0.69622785871713    0.07794883002589   11.80242046438414
P         1.74592449653969    3.88989898107935    9.52597883776016
Cl        3.38117905080554    1.68524100671966   10.77475531676653
C        -1.49124003017408    2.05226714689659   12.85670984017801
C         2.79906615471515    3.31561418840371    8.16133234166156
C         3.55126994844174    5.13023701114306   11.10712790978835
H         3.76819974573132    4.10323559780090   11.36939182113040
C        -2.42712343081445    1.58002385178118   10.16518236749882
C         2.54663107781883    5.37598212793794   10.17008211884347
C         2.54317102935815    2.04764895456655    7.64795829008587
H         1.77991507147439    1.42513568325386    8.10936109176465
C        -1.70700231786461    4.08635665459446   11.04961123350180
C        -2.71588351869355    1.54542887513561   13.27028126173848
H        -3.46793517945575    1.28477836472535   12.53788472812936
C        -1.97834750038872    1.66977562225023   15.55126690408208
H        -2.16824670224626    1.51376560594915   16.60286174330518
C        -0.75522258521701    2.17450536380185   15.13753196125180
H         0.00801678871758    2.41088631779516   15.86366702643313
C         3.28341728891400    1.57485076682703    6.58211474569870
H         3.08988768647300    0.58902517856689    6.18662673286973
C        -5.11980941943359    3.74792266175188   10.91028581398971
H        -4.83722995212061    3.33384142718067   11.87625566041912
H        -5.96474502728698    3.18396056638044   10.52506573030900
H        -5.42918583604777    4.78069871147606   11.05466577968140
C         4.28186052824049    2.36319003119807    6.03113589817888
H         4.86685150618017    1.99032684397556    5.20348613738551
C         1.14981822794099    7.06987821831375    8.79333501831892
C        -2.95272713727154    1.35150260139299   14.61989437410285
H        -3.90001502472977    0.94580552310617   14.94408769874278
C         3.79919398370519    4.10547646698077    7.61027551196512
H         4.00748617151086    5.08181946143352    8.02663259410665
C         4.25738880506040    6.16662548633609   11.67958086604417
H         5.03428630885030    5.96516234366995   12.40082580683679
C        -0.50857358412077    2.36336458250694   13.79180972943489
H         0.45920688768291    2.72631453576610   13.45390011001220
C         2.21440960225080    6.68390527519987    9.80460939967149
C        -2.84914772848483    4.51885496046655   10.54570075501606
H        -3.08853196136251    5.57469973897898   10.59931894118401
C         2.95123676061748    7.71061469967101   10.39269843586584
H         2.74230598343107    8.73546266332337   10.12777632394130
C        -3.58030993016873    2.21872083996229    9.69959013333041
C         0.21280135683059    8.13847452482245    9.38433334122904
H        -0.60854520988920    8.33498870192384    8.69878695689532
H         0.73694797751364    9.07367099727796    9.55204638916409
H        -0.19457515680702    7.79613143319458   10.33205653443280
C         0.45269007043263    4.66034278643488    8.53180739836164
C        -3.92994330645032    3.67798074522261    9.93084381875866
C         4.54138785142432    3.62210328145315    6.54700089889544
H         5.32827279393459    4.22922188328843    6.12358410843775
C        -4.31852986532388    4.35211727364633    8.60274276309146
H        -5.24045846936258    3.94019980679838    8.20551350414377
H        -3.53140465926192    4.20964379069866    7.86679818326910
H        -4.46859723439209    5.41859386174553    8.75552032607027
C         1.84685865255954    7.63562486174003    7.53859474737744
H         2.45975510378799    6.86820783908396    7.06982933587890
H         2.48402078504403    8.47529021790868    7.80172334134608
H         1.10697822117674    7.97477662499381    6.81700144008194
C        -4.49668568973033    1.43614499569484    8.99917350790310
H        -5.41025538924277    1.88135555347568    8.63682480906319
C         3.95306803312545    7.46628212732286   11.31216575948913
H         4.49481333976057    8.29533558729248   11.74270649434868
C        -2.20421084587980    0.22783985549222    9.90143477569112
H        -1.29272078614811   -0.22349567251682   10.27040957467567
C        -4.28073616945764    0.09488364926317    8.74775188361217
H        -5.01901580364780   -0.46953489529260    8.19772799984776
C        -3.12379618894614   -0.51902037224006    9.19644335627856
H        -2.94283770062163   -1.56449983069077    9.00002647124284
Br       -0.48813917139853    5.28959849796659   11.90537764346110

