73
CSD_code = LAFQIV | q = 0 | S = 0 | Stoichiometry = C34H34Cl2P2Pd | MND = 4
Pd        5.97299507224089    4.10936452161806    7.51697911779685
Cl        5.95601834491657    3.49145806094600    5.31946930952260
P         3.85893579992797    4.82487528723271    7.16334286238972
C         3.95429386193466    6.43321075143812    6.33303547433902
C         5.15263157735998    7.13463373779063    6.43118413215468
H         5.97736991550904    6.70225091779056    7.00770166952382
C         2.72014749383842    5.10721596696867    8.54240526034039
C         1.83351865565981    2.76808677716974    8.19907861802084
C         1.93631892021010    2.97553390575286    6.70657591657774
H         1.29383839327670    2.35530344833121    6.09518473197155
C         1.81594605860202    4.10915961739142    8.91636685736030
C         2.77504464916482    3.83321818179459    6.13733956161070
H         2.88187248702339    3.92540198296533    5.06530094445501
C         5.28384529981339    8.36776556759508    5.81871519876773
H         6.21302727386839    8.91390032229785    5.89097508507048
C         4.21912935635743    8.90074461672041    5.10971080544953
H         4.32108890664666    9.86139299363274    4.62661586998425
C         2.88393603357053    6.97485156235907    5.62997281134062
H         1.95299015463217    6.42804179978455    5.56612258089424
C         0.59711274397947    1.91350862028387    8.49370921321016
H        -0.31418941686114    2.45150012997072    8.24068761459365
H         0.55996887414228    1.62302996593754    9.54044639305234
H         0.63545518670342    1.00269256996596    7.89923664115924
C         2.77857174778779    6.31515388416062    9.22672416916196
H         3.50715199392113    7.05711622565290    8.92952931154488
C         3.02209336290145    8.20734192726869    5.01828730436608
H         2.19518549217467    8.63017946115770    4.46647119915798
C         3.08509810766401    2.00457084832261    8.67617195387665
H         3.15942250014558    1.04927720189659    8.15926458872459
H         3.02859931365319    1.82790599243017    9.74848840711042
H         3.99553996321624    2.58867864172037    8.47752298023066
C         1.92270420218277    6.55677101463734   10.28291729022848
H         1.96991756055262    7.49321758950019   10.81805001160452
C         0.96007693662744    4.37560405990919    9.97664119990969
H         0.24365905994003    3.63715628169151   10.29889450104403
C         1.00950421097124    5.58439495322656   10.65036935454548
H         0.33370462007498    5.76102090412106   11.47439389585854
Cl        5.99172527151558    4.72770813546406    9.71535859615158
P         8.08792948272616    3.39369227824121    7.87035906364662
C         7.99265000750006    1.78545052042080    8.70087591179853
C         6.79432769554743    1.08399994626104    8.60273996361566
H         5.96958324183907    1.51636903566320    8.02621816716155
C         9.22679417294255    3.11145472978967    6.49136484059012
C        10.11335071781256    5.45061814484414    6.83480697106295
C        10.01042242257448    5.24319761821031    8.32729278396295
H        10.65303415042460    5.86326801986315    8.93871686679252
C        10.13094892586866    4.10955800040027    6.11746846111878
C         9.17163821427762    4.38551656377356    8.89645982128411
H         9.06506459691989    4.29307017872056    9.96851954693463
C         6.66314405476700   -0.14915235924247    9.21518432843279
H         5.73397901200008   -0.69531962095634    9.14288582768267
C         7.72787302852593   -0.68213194741321    9.92416051786204
H         7.62592340874265   -1.64277402136489   10.40727247398386
C         9.06301491780024    1.24381834669151    9.40394850587784
H         9.99395359569717    1.79063798228996    9.46778652167981
C        11.34976237052635    6.30521363755091    6.54024846201418
H        12.26106561616324    5.76720984187637    6.79324369290694
H        11.38689258532090    6.59571113661785    5.49351907503329
H        11.31142752867742    7.21602460886470    7.13473301525947
C         9.16842750027518    1.90353321602737    5.80707288346258
H         8.43982638801126    1.16156446337596    6.10420040713768
C         8.92489805209168    0.01128898773743   10.01557654676731
H         9.75180845417988   -0.41153034606021   10.56740621111134
C         8.86177685318263    6.21417845080872    6.35778007853765
H         8.78743557716256    7.16946470224779    6.87471088205535
H         8.91831809138811    6.39086287312416    5.28547896485096
H         7.95132850155720    5.63004491086597    6.55634293732686
C        10.02430365367661    1.66197115611212    4.75089221711356
H         9.97709662370495    0.72554657689108    4.21573006679699
C        10.98685121366054    3.84316250630688    5.05722771887184
H        11.70324452906487    4.58164380375426    4.73501921875466
C        10.93747213414243    2.63438560086489    4.38346599573964
H        11.61328269540493    2.45781202994565    3.55944961967022

