73
CSD_code = LAFQER | q = 0 | S = 0 | Stoichiometry = C34H34Cl2P2Pt | MND = 4
Pt        3.65988537367784    6.45782810009915   14.55499933446456
P         3.78849485877710    6.92762198317900   12.32801214667314
Cl        3.47881067235565    5.98830938208507   16.81538929413487
Cl        5.84757913888694    7.18166904859175   14.73417973415830
P         1.60159931025384    5.49146668339842   14.74738609879069
C         0.44452401002183    5.97119987121127   16.03141944196223
H         0.55776896972337    5.48578464706465   16.99100184635865
C         0.63111202486347    4.81102072408904   12.24698569171422
H         1.37568654427050    4.02824555317499   12.29594660469691
C         0.47408190508110    5.66429144340053   13.33440298459826
C         2.64951872709835    9.23333040773249   11.44762209033949
H         1.85843509910915    9.83127848322591   11.01203308324247
C         1.71616011967005    3.69645573249984   14.97531598494710
C         5.13494228166280    9.22418556347299   11.48677610230142
C         0.55646792824692    2.92644058484164   14.97423590779672
H        -0.40290951518451    3.40693958831474   14.83352797042608
C         2.48596421751129    7.92333475275351   11.59370054295968
H         1.56997032969437    7.42288414354481   11.30965824467510
C         5.20565293440163    7.84246804460627   11.67687682416474
C        -1.26511150127822    6.81191696471055   12.16937545264525
H        -2.01539298298027    7.58344563858341   12.10640856819863
C         2.95120011283020    3.08927170936477   15.16063914721261
H         3.84470655733528    3.70207052280499   15.19511458371423
C        -0.62220789205943    7.63143557855972   14.49199505339269
C         6.36560749798294    7.13505129824762   11.38141781908045
H         6.39383522862730    6.06922281862063   11.56045245526668
C        -0.49182587303641    6.87993478027494   15.79308152897246
H        -1.19490261658945    7.14967994967498   16.57000976316960
C        -0.48317226883874    6.68299090456175   13.31131801700306
C         3.87347365336135   10.10025539487903   13.41685692722753
H         2.98683969648952   10.63242969994410   13.75453022094353
H         4.75902509223320   10.63484903736952   13.75176870483484
H         3.88571683334748    9.10897268101984   13.87903208030206
C        -0.15454919869024    4.95612278783546   11.12113278485580
H        -0.02571791681607    4.29250121676581   10.27923414471889
C        -1.10284211629547    5.96434520297332   11.08621907144001
H        -1.72340140971148    6.09418020743481   10.21170422351678
C         0.52766705722994    8.65334832410323   14.42296903717395
H         0.44603786649158    9.36052136471220   15.24525910211328
H         0.49578181330965    9.19515184574431   13.48047763040609
H         1.49506863311509    8.14686593445051   14.50120651716026
C         0.63943486792466    1.55829083902872   15.14995362546154
H        -0.26002645086428    0.95988339310931   15.15143144240032
C         3.88047795617268    9.98701829719053   11.88067378734518
C         1.87487104425018    0.95397085492196   15.32765268552460
H         1.93488341037369   -0.11554287477484   15.46644310066773
C        -1.95394595098546    8.38933976893182   14.48958621296060
H        -2.79292979549214    7.69814617135133   14.44184943270989
H        -2.01363678600224    9.08025009310758   13.65255954346259
H        -2.04055282778267    8.97332629041277   15.40346399823206
C         3.02920681905017    1.71917404405148   15.33571192724929
H         3.98975810935821    1.24841529677143   15.48466748166559
C         7.47311686709627    7.79168628839831   10.88467997548546
H         8.37701641527096    7.24449874890787   10.66362172873908
C         7.41347108780926    9.15949195182952   10.68297958425645
H         8.27335124715118    9.68773989128371   10.29797257928610
C         3.82705606702482   11.39816882810348   11.28613513209000
H         3.92440971965118   11.36738116305934   10.20274680908216
H         4.61283702350571   12.02637037040729   11.69640857708893
H         2.87392167218559   11.86130539821567   11.53421610978724
C         6.25991527890980    9.86372631032009   10.98155671698151
H         6.25456641564791   10.92975733033356   10.82131038691846
C         3.76966128021976    5.41042321348559   11.33255494720824
C         4.15814328401002    4.22676420140469   11.95016537880513
H         4.47366122474558    4.26156408626043   12.98797769000066
C         3.38223430309145    5.40057032647117    9.99794138827795
H         3.09645622946291    6.32460395815527    9.51529051936713
C         4.14106117620879    3.03567923176412   11.24858234792671
H         4.43677206106509    2.11668909060171   11.73291945159806
C         3.36407759042274    4.20707308841917    9.29917373461697
H         3.05819859918206    4.19537056803717    8.26308315731675
C         3.73646505590205    3.02638115957132    9.92304914578411
H         3.71448580922381    2.09726402096633    9.37276863995989

