38
CSD_code = LAFSIU | q = 0 | S = 0 | Stoichiometry = C15H19ClO2Ti | MND = 12
Ti        2.55512833665409    1.47604342741653    4.95442781908489
Cl        2.73208292891421    2.21407984753741    2.82236830435282
O         2.69368437043100   -0.15442206516032    4.49230716056896
O         3.70128784508766   -1.92496791415923    5.52969495513624
C         4.40375840869746    1.02095956136204    6.36609760065413
C         4.92695556652754    1.46820149200606    5.13395491418308
C         4.56347748584875    2.82469477233043    4.97630074255291
C         3.79760033652148    3.20696311075462    6.08857576957421
C         3.69914261680350    2.09307331666167    6.95243987881513
C         0.23078184300731    1.59213917485772    4.35689777020600
C         0.29128697758999    0.64053936262927    5.38571238885328
C         0.75584603538042    1.28915300920134    6.54973254664205
C         0.88698288056696    2.66850444820900    6.25570384782389
C         0.59848353379242    2.85249170197071    4.90035192547632
C         3.28822915614727   -1.32348309533317    4.34510713369288
C         3.51601271404198   -1.91474181520622    3.16060321523356
C         3.13464888128015   -1.23759990106553    1.87996178323520
C         4.19930339548359   -3.24243018281681    3.05328735950289
C         2.66748804990697   -2.12717173946620    6.47718073592611
H         4.61683287432147    0.06687688236938    6.82918075537880
H         5.57441463602267    0.90255208101976    4.47452618994969
H         4.89332492979817    3.47608059862576    4.17774671375610
H         3.47234232953075    4.21629075201982    6.30740461865828
H         3.29391277866017    2.10292709828817    7.95624599050891
H        -0.13882265175004    1.42264608257259    3.35340632728690
H        -0.00781515912041   -0.39750277571148    5.30591830026898
H         0.79715970408346    0.85319292140762    7.54059787872395
H         1.06660859449357    3.45045526131212    6.98105416374616
H         0.54243177426427    3.79871144111504    4.37714465803652
H         2.57015303718386   -0.32692379319769    2.07711169264548
H         4.02656133931947   -0.97553440466456    1.31045462963314
H         2.53335132653066   -1.90742459317018    1.26601563997488
H         5.14459010431191   -3.13495120768805    2.52199827060206
H         4.39810986660651   -3.65438131163143    4.03769438939462
H         3.57966073674787   -3.93829526878241    2.48789177578148
H         3.14219201993942   -2.57430660432016    7.34907146438400
H         2.19293031378640   -1.17707966348406    6.75824944482763
H         1.90858008259431   -2.81206000779230    6.08228124492834

