51
CSD_code = LAFTER | q = 0 | S = 0 | Stoichiometry = C25H22MoO3 | MND = 9
Mo        1.53041295697060    0.90591631819583    5.48418787072693
O        -0.84272969223731    2.14539469732814    7.00990760605577
O         2.15912351979109    3.85895325239715    6.13333734261512
O         3.66001778100894    1.04161478859196    7.70842833161088
C         0.04157142022002    1.67556285283206    6.45026966660297
C         1.93601661311353    2.76708051215074    5.84390006282898
C         2.86569536075748    0.98747549603807    6.88337454520188
C         0.91651912836090   -0.57242678152081    7.11248270957252
C         1.20549478013201    1.05955796234248    3.19856994575850
C         2.55673208657270    0.67569678283391    3.44895821823416
C         2.55477339426456   -0.59973960332167    4.05920889749106
C         1.21198916542141   -1.01243242729261    4.19443741089965
C         0.38221670356834    0.01094775696175    3.67929299740585
C         0.73433890306879    2.22713225646752    2.36236329981136
C         1.85276001148297    3.25942469830696    2.18984745961738
C        -0.45574786940791    2.91028445680924    3.04571705140254
C         0.30333882520555    1.66841927360981    0.96017070492888
C         1.45024342431994    0.95996769519965    0.28253114343230
C         2.04900716657524   -0.24296074204995    0.59354846383576
C         3.13808942279923   -0.66306993123020   -0.16007349613952
C         3.61556265911171    0.10277189110497   -1.21147524458958
C         2.99098165002669    1.28943485460831   -1.56045695824717
C         1.90171131137753    1.70859357883590   -0.81589697437860
C         0.99745023933960    2.83049524727708   -1.00848589085619
C         0.96134609991753    3.79572829851104   -1.99998720350097
C        -0.09493047625891    4.69224209702861   -2.01559530146978
C        -1.10840810772401    4.60303731920491   -1.07521336307839
C        -1.07153040962320    3.64008741860702   -0.07427878484213
C        -0.00156815715660    2.77095572305828   -0.02311114490854
H         1.62815338927544   -1.39708190420804    7.10761482281988
H        -0.06887184346542   -0.97258175474172    6.87568831852708
H         0.87129594775445   -0.19590134460038    8.13183853334203
H         3.43729181103365    1.17125759741605    3.06180282965029
H         3.42616416393894   -1.22379688310874    4.22078033667251
H         0.88088277103304   -2.00426457299339    4.48144066046875
H        -0.68361317663124   -0.09012352228833    3.50953332022610
H         1.47854954579718    4.12912480802546    1.65473119184256
H         2.68498097177679    2.84974562709106    1.62206056089025
H         2.21509997948827    3.58639785487675    3.16421244976618
H        -0.73494270975952    3.80979178940166    2.50510998909443
H        -0.18235454778513    3.20145516298401    4.06091543041533
H        -1.32093109814393    2.25252163613839    3.09558811678379
H        -0.55400013154440    1.00463375745247    1.10700647938437
H         1.67346285454648   -0.86883400175445    1.38951892894854
H         3.61519687698357   -1.60327192027292    0.07509136560287
H         4.46934968849027   -0.24021741442596   -1.77739958503041
H         3.34167756817966    1.86927387073409   -2.40106872388160
H         1.73355091606011    3.84254305251504   -2.75318338487364
H        -0.14106447717725    5.45406193078236   -2.77989653740398
H        -1.94255907077692    5.28763452851785   -1.12240650230251
H        -1.88619734008015    3.57108595958736    0.63096203301915

