43
CSD_code = LAFTOB | q = 0 | S = 0 | Stoichiometry = C20H20MoO2 | MND = 10
Mo        5.53299662355228   -1.16334217520642   10.34876152702675
O         5.31410759767080   -3.06432285611581    7.94033923522965
O         2.69473935103440   -0.01811009409708   10.05678625685499
C         5.34364876176716   -2.35408306766672    8.84384294411399
C         3.74567872632395   -0.48168605492219   10.11883578021792
C         5.70605865964736   -0.19926826949629    8.28624078003633
C         7.81549416516297   -1.17086163510173   10.86200617763052
C         7.48123056825228    0.15160605482781   10.49622265052449
C         6.54899694293134    0.65677873962716   11.43905741724558
C         6.28802963010806   -0.35672537934423   12.36917514901501
C         7.06350467550552   -1.50076348308091   12.00593512146544
C         7.06207044029870   -2.80626488730301   12.76615758171484
C         7.94771064043261   -3.84982915739975   12.07536837242508
C         7.59693947291618   -2.58318452333944   14.18494112499201
C         5.59675036947081   -3.30649386406075   12.71134159609504
C         5.05191078635320   -3.14934074546249   11.28241298278748
C         3.83336512278667   -2.39476779959736   11.32607117656678
C         3.58643857403686   -2.01550658537992   12.71723870199476
C         4.58913995946920   -2.54847245905553   13.54000447308695
C         4.50228531810326   -2.40568884468327   14.91085771463903
C         3.44797869528861   -1.67686906114741   15.44822690565537
C         2.48084554899837   -1.11728616492838   14.62990537646390
C         2.53088304041502   -1.29821597363707   13.25642891908106
H         5.70239355814488    0.87605533279845    8.47828808212472
H         4.89201149281896   -0.38063463385455    7.58717770769501
H         6.63483077459139   -0.44588123489182    7.77201310787295
H         8.59762975059709   -1.75947238673711   10.40652694250452
H         7.99429159459774    0.74213673792724    9.74549091145051
H         6.21520389336780    1.68455755517420   11.50309742800938
H         5.73496632178254   -0.23112869243421   13.29024447628304
H         8.98410233409100   -3.51874577062927   12.05603818643372
H         7.61836181339531   -4.03093284976282   11.05421578279044
H         7.90570262398608   -4.79027586732545   12.62135343390439
H         7.05870773897134   -1.78741680270129   14.69187114329444
H         8.64727683127797   -2.30011245578681   14.13484756859681
H         7.51610573507080   -3.49645476680097   14.77043603107140
H         5.57449199935995   -4.36374639012122   13.00714784797868
H         5.09024402320002   -4.04881433619398   10.67107843422671
H         2.97894026807874   -2.68805636912798   10.71818195527043
H         5.22196813469293   -2.86651049005977   15.57002626114141
H         3.37738196703634   -1.55838839278894   16.51953076895524
H         1.66976724957340   -0.55443981005125   15.06769368393975
H         1.76311822484062   -0.89094009006199   12.61588228159356

