83
CSD_code = LAFYOI | q = 0 | S = 0 | Stoichiometry = C26H50ClIrNOPSi2 | MND = 6
Ir        1.36357578836127    3.54617979057452    2.07922319949930
H         2.17621124754896    2.67055302442772    1.10540281916188
Cl        0.06908464086433    4.89898101092318    3.65965009752510
P         3.11084042309601    3.42573950573396    3.60684261370784
Si       -0.45352334561311    3.62658069942622    0.59397586122358
Si        1.96007306364365    5.51750371260671    0.87423761090887
O         0.70760565741265    5.38455284237138   -0.30125737609273
N         0.79234825073617    1.44734161118069    3.34816137220487
C         2.91175727995579    1.86586852796501    4.54521641290774
C         1.79227179331724    1.06621593776220    4.32193503771084
C         1.64873204468204   -0.10293521350842    5.06508841732200
H         0.78588520632570   -0.73713889624714    4.92066781852409
C         2.58929933325244   -0.47654680838161    6.00270135300294
H         2.44990350332115   -1.38922892897869    6.56436741874663
C         3.70713887618271    0.31429852979905    6.23766599365465
C         3.84544139822040    1.47961573283517    5.50316931680508
H         4.70156161559170    2.11121689079729    5.68805702624179
C         4.74279646166169   -0.08745011381179    7.24326997031377
H         5.53888067172373   -0.65036109494453    6.75417818327221
H         4.30930663800122   -0.71893092648391    8.01506824045490
H         5.18853589189260    0.78724409427945    7.71186170820448
C         4.80596536415505    3.22706675562349    2.81424204164587
H         4.73348481093577    3.89691204623841    1.94723601088400
C         4.94882277144789    1.80206629403244    2.27947189431663
H         5.06031990991469    1.10227272223521    3.11177914308535
H         4.04491775752993    1.53242626095630    1.72850029716840
C         6.16442890828652    1.69462345151004    1.36417986514723
H         6.26246735918069    0.67144153974240    0.99473604100147
H         6.02590980081800    2.35124842525243    0.50282923818388
C         7.42830616851584    2.10051429692050    2.11550719227172
H         7.59976328490481    1.40327933668480    2.93953952404911
H         8.29335895314995    2.05027867437172    1.45084170186187
C         7.28100558854408    3.51336022033793    2.67027712662201
H         7.16493249026261    4.21597310124632    1.84185459413223
H         8.18175925619507    3.79272966923621    3.22229300357097
C         6.06351083701431    3.61391237138318    3.59050386673835
H         6.21627972648084    2.94391594745563    4.43888511947836
H         5.99157223032895    4.63657888936794    3.96428091981324
C         3.42303421935809    4.59732919701400    5.02276768060583
H         4.40145850437434    4.36448635295076    5.46193916307129
C         3.43347354140006    6.01905421233476    4.46865204823127
H         2.44788373719810    6.22462487394421    4.05101150435183
H         4.16553737500585    6.10757200999817    3.65970164832249
C         3.73229442712981    7.02636500500414    5.57413340790937
H         4.72720685359335    6.83774278214460    5.98914931199494
H         3.72837484145054    8.03890037423841    5.16445981306129
C         2.68724260956478    6.90675304353327    6.67894033591083
H         1.70526005127787    7.14692428859761    6.26755110931906
H         2.90331322906050    7.61679034762166    7.48086632387713
C         2.65979338145765    5.48480908189594    7.23068352219978
H         1.89777726875416    5.40308372326782    8.00883118535853
H         3.62766825279027    5.25168684817165    7.68586461426751
C         2.36284980787936    4.48435358759133    6.11676511239043
H         1.38309015210073    4.70122302313236    5.68865912396375
H         2.34134558131371    3.47125016851970    6.52910522041360
C         0.61138315622106    0.36764719745102    2.37565392311327
H         1.57054351629375    0.12974896657141    1.91962990844073
H        -0.07089599350662    0.69737508254649    1.59492954040120
H         0.20210495633832   -0.54211394288996    2.83238806376313
C        -0.47219484136792    1.71824029164868    4.03141978433296
H        -0.83571533742262    0.84884210425674    4.59472190868432
H        -1.22552025489872    1.99692366278000    3.29590758005395
H        -0.34225926156668    2.55333124778926    4.71735591998885
C        -0.75156219378352    2.73142663429449   -1.09633416818789
H        -1.31033063295274    3.35107197789408   -1.79176478268601
H        -1.31970730551352    1.81756271037272   -0.94610976309029
H         0.18703776248858    2.45952191740347   -1.56635360534509
C        -2.11391549844344    4.58780784819449    0.82445672545895
H        -2.08395668176547    5.18243281843089    1.73270663818791
H        -2.95722287827214    3.90529565850885    0.90692755843759
H        -2.30989208106621    5.25933102718544   -0.00843185839471
C         3.60421523811297    5.62313938084180   -0.14166806655824
H         3.79449370480521    4.70670062661638   -0.68751626864552
H         4.45097206231317    5.81262410297988    0.50777548890849
H         3.55586511310592    6.43820792509613   -0.85700219364341
C         1.74278083073942    7.30197159348936    1.58119970010347
H         1.51615674039769    8.00162025461932    0.78017598918965
H         2.63972312007852    7.65013484507586    2.08156307915793
H         0.92646545609878    7.33829839741345    2.29453632586883
C         0.39873021533669    6.27508027313050   -1.33434410634357
H        -0.16390436981973    5.73583181917538   -2.09688683188514
H         1.30943678319938    6.67295283883554   -1.78330037970315
H        -0.20616681672080    7.10554388940584   -0.96055791013010

