46
CSD_code = LAFZOK | q = 0 | S = 0 | Stoichiometry = C22H17FeNO3S2 | MND = 6
Fe        3.70340862315121    2.75578195465026    1.63551654494292
S         2.72603949092762    0.65827338333104    0.90514022169144
S         4.32380758958989    1.77131567874781    3.66907283884004
O         3.44434814584876    4.21964753806154   -0.84740028681564
O         6.52858925242804    2.32180871660438    1.13523157800188
O         5.13030077424314    5.08540976838793    2.19147432816993
N         1.94524390905115    3.08190172831113    2.39744593279064
C         3.48370828328060    3.60351882716831    0.12105081501710
C         5.41196360005007    2.46801686058490    1.29428530279630
C         4.06273050192137    4.53784945573862    2.18033643100129
C         2.77490993798397    5.29438131542232    2.55556847254378
H         2.94895583028323    5.97696922707593    3.38903507033667
H         2.51987792267128    5.89733789652489    1.67737786975446
C         1.68909993687100    4.32023675778608    2.84008822721727
C         0.51461528894816    4.63083017245984    3.50545222742872
H         0.34917591072734    5.63564711907153    3.85847230755549
C        -0.42608296004309    3.63555826916940    3.70986649568934
H        -1.34988740936400    3.84720530942703    4.22466701970823
C        -0.15469474133485    2.35691324759772    3.25072143470050
H        -0.85568495048336    1.55110704719296    3.40248146324624
C         1.04979254194757    2.11095899427741    2.60784005586348
C         1.41964301816626    0.72314158967020    2.18202721568148
H         0.55873226312968    0.14517590253169    1.84563770473459
H         1.89181657143853    0.20749952217204    3.02443882151677
C         1.90581824736397    1.21862135307567   -0.57680109584844
C         0.65929559645023    1.82385356676055   -0.59262124726888
H         0.10496607924441    1.98825744544646    0.31827897651327
C         0.12171201859963    2.24416496659532   -1.79813595900364
H        -0.84733170581938    2.72060302393185   -1.80582828838092
C         0.81710606766001    2.06390941188561   -2.98025369165959
H         0.39243854117986    2.39900849043418   -3.91390265862803
C         2.06228906623003    1.45498758404784   -2.95979117711300
H         2.61187003768889    1.31249659832835   -3.87750049988342
C         2.60537882868710    1.02910904176383   -1.76395693237889
H         3.57691965193216    0.55994525101274   -1.73244073523453
C         3.52321886540079    2.76710709779981    4.88685935832430
C         2.39627936747286    2.28383124708268    5.54513146857553
H         2.03403569204300    1.29071733226561    5.31989862618699
C         1.75089378705492    3.06496330354675    6.48465647737153
H         0.87059275005887    2.68373285662417    6.98311453864274
C         2.22785224919514    4.32926357535230    6.78671395033138
H         1.71865286786041    4.94134355369343    7.51670111885089
C         3.37307782110265    4.79687848099276    6.16157570291816
H         3.76571392461333    5.77211626372398    6.41266002356984
C         4.02358952322141    4.02104941972923    5.22162469065772
H         4.91992139130784    4.37775385393263    4.73688926106544

