118
CSD_code = LAFZID | q = 0 | S = 0 | Stoichiometry = C43H68ClIrN3PSi | MND = 6
Ir        0.14779815731668    1.73790146511608    4.17901053869711
H        -0.09809844400806    3.06841259065426    4.92887908008265
Cl        0.41137764245304   -0.33311290746375    2.88604566896824
P        -0.68751903938853    0.59721606451589    5.99500002288206
Si        2.34153142972322    1.49543832790217    4.92015697705227
N        -2.50737374386084    1.68033208214200    3.82425969855361
N         0.64650594131255    2.82188362041994    2.47380071975188
N         1.90831704810984    4.69635975790176   -1.06102683449143
C        -2.50859300780596    0.77779144291133    6.09768299602392
C        -3.20396709735760    1.36179718138647    5.03663816341779
C        -4.57309859070940    1.57303458236023    5.16280905710061
H        -5.12751576991982    2.02555350069153    4.35326333392190
C        -5.25017836372748    1.19983317992870    6.30717751745123
H        -6.31409411382555    1.37650817952480    6.37946127070642
C        -4.57947327422447    0.58197505032127    7.35358726343967
C        -3.21352428281262    0.38013423276945    7.22841466434986
H        -2.68659938343324   -0.10658564231570    8.03478101976430
C        -5.29652499871070    0.15687994191498    8.59960554563836
H        -5.01650888406564    0.80173079311116    9.43296996302018
H        -5.03149220814346   -0.86506691920166    8.86525554427108
H        -6.37392971919498    0.21664119815045    8.46824387785185
C        -0.54367794137478   -1.24473865351987    6.26018551417468
H        -0.91621915965147   -1.45484397870121    7.27102157424355
C        -1.39340193959360   -2.03461777741820    5.26791716295548
H        -2.44155740375885   -1.72489017778953    5.33039073912061
H        -1.03144713139767   -1.84044930709088    4.25769857204948
C        -1.27845535653446   -3.52853789460377    5.55931634627845
H        -1.66456515594905   -3.73622223205230    6.56187765443543
H        -1.88558012643350   -4.09060238234895    4.84584971227225
C         0.17705151211430   -3.97701024566494    5.47053505217931
H         0.25396191347140   -5.04492289367099    5.68856742067645
H         0.53895708389880   -3.81192021992312    4.45412600863293
C         1.03961021001641   -3.17574648506869    6.44088289138734
H         2.08348824836405   -3.48222619159543    6.35089130156929
H         0.71768620204298   -3.37800458688546    7.46681685253345
C         0.91295357658369   -1.68423749766109    6.14319693679738
H         1.25052870049049   -1.49061483610371    5.12500771879173
H         1.54734376172803   -1.10196754126683    6.81509931206098
C        -0.09353790220804    1.29762256358504    7.64354310949104
H         0.94593917411683    1.56279193740205    7.40706800277205
C        -0.05636508098045    0.42091725747895    8.89532020205469
H        -1.06434260804350    0.18058390327300    9.23660300468517
H         0.47741867056179   -0.50966690583866    8.70528081236012
C         0.66116840073125    1.17639576305804   10.01532186425771
H         0.69715067098483    0.55376556122454   10.91240053978080
H         1.68838545681163    1.38234049704851    9.70757881917333
C        -0.04662422557387    2.49118678145400   10.32507700426019
H         0.48696875070250    3.02394467914453   11.11505219225795
H        -1.05666098352209    2.28355890594309   10.68697998679702
C        -0.12717375478980    3.35543062331411    9.07095903355923
H         0.88095946869084    3.61592109623374    8.74332464087050
H        -0.66188643246474    4.28220163205524    9.28978021978156
C        -0.83563715497384    2.59779177809390    7.95220263691185
H        -0.87290221965711    3.21146682387385    7.05060363790624
H        -1.86212908536333    2.38045216644699    8.25531240255268
C        -2.78947733637587    0.66710585607306    2.81958209292142
H        -2.46728838884369   -0.30633253166048    3.18306558371316
H        -2.23634372399438    0.89506166029369    1.90993435675647
H        -3.86041934837678    0.61556030072620    2.56850315075542
C        -2.82572529381996    3.00634518699371    3.31943303857879
H        -3.84792519079056    3.08865698600114    2.92347086387436
H        -2.13626352266180    3.25152452034752    2.51187539893900
H        -2.69380644781919    3.73360336690115    4.11843597729406
C         3.52982552373539    2.74945896707132    4.08627938469754
C         4.05713872266742    2.51992886118667    2.80719613960821
C         4.86276104555341    3.47849619421542    2.21562010153816
H         5.26975493795223    3.31002393198870    1.22889282474834
C         5.16527449125911    4.67054002694374    2.85998026075807
C         4.68869970279667    4.86356216101638    4.14736609710035
H         4.94067471519899    5.77313371749241    4.67161026165382
C         3.89550470924441    3.91345295349298    4.77114877484050
C         3.78026127398042    1.19941405068891    2.12925999416941
H         2.75330496259440    0.90187883853539    2.35315181117089
C         4.71159388949870    0.13554441003865    2.71779386100757
H         5.74987634574409    0.38166379526444    2.50077252604521
H         4.48572767863515   -0.83834583832502    2.28971512220450
H         4.58344219255616    0.07844002028394    3.79637851506736
C         3.92397356855866    1.22925016055159    0.60826389356884
H         3.36752722013539    2.06253082958790    0.18358561280106
H         3.52716167030245    0.30615880709832    0.19067463697632
H         4.96744993286331    1.31098050326958    0.30930492243385
C         6.03148592219187    5.70619597974620    2.18303362381670
H         6.20697600244823    5.38349623992907    1.14912421436167
C         7.38831772551620    5.80258828965914    2.88484508460426
H         7.26229404978224    6.12625421225569    3.91514837231581
H         8.03241949322437    6.51601430489438    2.37412309415160
H         7.87918475825168    4.83192560088050    2.89038877987233
C         5.35160314458033    7.07651592112247    2.14474545456704
H         4.36989972042192    7.00577652814617    1.68060321981112
H         5.95302652481732    7.78099625767335    1.57316674517026
H         5.22524566819349    7.47362323412093    3.14858130706279
C         3.41876409234140    4.15110027020763    6.18563200796042
H         3.01536361517360    3.20675913486749    6.56393486066789
C         4.56684778522255    4.56915366509216    7.10756087039945
H         5.39966570548454    3.87721615154476    7.00805383505365
H         4.23379508622320    4.56419801515563    8.14346044179799
H         4.91849329200686    5.57081577348574    6.87405698124541
C         2.29485828189310    5.18784452852896    6.21654196678967
H         2.60458072955296    6.10574859714827    5.72127080040159
H         2.02514541523496    5.42523256427643    7.24363011431387
H         1.41340905409487    4.79441258579820    5.71626916387669
C         0.34762715004291    2.33085251030217    1.26585254992013
H        -0.17310049768137    1.38456261627608    1.23648726494277
C         0.71047180926442    2.91912690140682    0.07790470878149
H         0.43946742009015    2.42339801417581   -0.83904923556899
C         1.45891031292618    4.10810229367882    0.07834364291466
C         1.70509326812136    4.65523255587877    1.35016430517534
H         2.22929039870383    5.58724571192653    1.46816167392979
C         1.29093721757381    3.99844855815184    2.48103705993837
H         1.49716451354211    4.43415277926941    3.44609060157040
C         1.61616112448283    4.11566111422875   -2.34872836895420
H         2.13437862624084    3.16077053001028   -2.49441474441448
H         1.92831283241580    4.80183849852219   -3.13258049454460
H         0.54237111976488    3.95051894956767   -2.45585713648239
C         2.89222228390799    5.75059873379578   -0.98278074637764
H         2.44422211516040    6.68074091081489   -0.61971201664903
H         3.30627186753610    5.93530257152351   -1.97087077228504
H         3.71057160396413    5.47093127456184   -0.31371940132342

