87
CSD_code = LAGBAZ | q = 0 | S = 0 | Stoichiometry = C36H45CuN2O3 | MND = 4
Cu        4.12554433990073   11.19197825740948   11.44459778569619
O         5.04849036363095   11.83166526161715    9.97535579919080
O         4.97606066412056    9.58868913403784   11.21734067517913
N         3.73278459693750   10.99055088539881   13.26024034330994
N         2.92518468622929   12.55237382731652   11.14985785002590
C         5.62544651687587    8.97055946992685   12.13267767414150
C         1.78371675069087   12.73463734516919   11.86405661922540
C         4.44492626446029   12.85530514770161    9.43579630220182
O         2.70810899318627   11.62578885234723   15.20330635991096
C         3.38013284985475   13.41315771597513   10.19045842856040
C         0.63529684244407   13.26536082316707   11.24350728026056
H         0.68344947730788   13.48297670274684   10.18755508976057
C         6.59065573677763    7.97136698274430   11.77793614328940
C         5.40109252614412    9.22028734518775   13.52430517673088
C         6.87891914978326    7.71017847640765   10.30564466321305
C         1.67906638366805   12.34356883196137   13.21775296086393
C         3.34200400122305   15.34462319153474    8.78012643756307
C         7.23704162109166    7.30238288750068   12.78271568412711
H         7.96752726120619    6.55817007918605   12.51540366353470
C         2.72273397988051   11.67799440614225   13.98767418622952
C         2.91113273153440   14.70068520716160    9.92081563703300
H         2.20850245121669   15.15316636459163   10.59933776975802
C         7.94130016166178    6.62547207842522   10.09783758669126
H         8.89098702011840    6.90923161376492   10.54631932836045
H         8.10526011941707    6.49134449980255    9.03083068606532
H         7.61835563828736    5.67064684279310   10.50767773161891
C         6.10659135250637    8.47991413593591   14.50719803399253
H         5.89380403977191    8.71119443342327   15.53788237771335
C        -0.52876809998350   13.46696963032466   11.94148880518655
H        -1.39040495511409   13.87133707682628   11.43060096804576
C         4.45459949441742   10.14934658981699   13.96342864943723
H         4.25607440710711   10.17507078274625   15.03710028446130
C         7.01861942192046    7.52662729648898   14.16139053669906
C         5.86180355972652   12.79638187828420    7.33357428073869
C         0.48444720789334   12.58837603039430   13.91080469083507
H         0.44999682679837   12.30103931075195   14.95099826052742
C         4.25706408674231   14.68968037470916    7.93884139289922
H         4.56211201983876   15.19739517675722    7.04005809673553
C         4.81866813635900   13.46040886296909    8.21637602581765
C         2.84454901516115   16.72719895502779    8.38515340711131
C         6.07766710367022   13.54054033216858    6.01294456479164
H         6.48852077541390   14.53366666654348    6.18056184195686
H         5.14713620981325   13.62664881356322    5.45607715830686
H         6.78660794899684   12.98567638687957    5.40190102465926
C         5.59174484618724    7.25170694861849    9.60680303659903
H         5.20813232546197    6.34707671878652   10.07547505966995
H         5.79400372530727    7.04100927716766    8.55893722494611
H         4.83096905744457    8.02362987901603    9.66243733218084
C        -0.60574884599461   13.15227646234226   13.29681962456119
H        -1.51575324381117   13.32956711300578   13.84798139406055
C         7.19383080631317   12.75221606698256    8.09384023553860
H         7.53037665346789   13.76119631412504    8.32526875387888
H         7.95479428920106   12.26010685079685    7.49168254456454
H         7.07564428352014   12.20425259998060    9.02355485994994
C         5.40006947375721   11.36817916349555    7.01509728686854
H         6.14542446901986   10.85982113622921    6.40702725206218
H         4.45997943409869   11.38974876341750    6.46684103100603
H         5.25635256957574   10.80175808300464    7.92966953951555
C         7.49735799664178    5.21656401182769   14.95051218229668
H         7.80292935158599    4.88722257593086   13.96146152315228
H         6.43024324753418    5.03376776250529   15.05658734961394
H         8.02554204011902    4.61412450088447   15.68615975767915
C         7.80433904896884    6.70462317498393   15.16991060078370
C         1.86640405505040   17.31399923936237    9.40661848075761
H         0.97569120460392   16.69663508639506    9.49704534362846
H         1.55577834566674   18.30525837287536    9.08246542025499
H         2.33305223212600   17.41078515749740   10.38396326427187
C         7.39031729795856    9.00714438700402    9.66266378611002
H         6.65078560930125    9.79700501847256    9.74642755630805
H         7.59952385371532    8.84135711772461    8.60827623735059
H         8.30659935827802    9.33443561357507   10.15102047637727
C         9.30430154357039    6.96384731002691   14.97146314444875
H         9.52236310328727    8.02211955218774   15.09762093346511
H         9.63451208452957    6.66350376830267   13.98097202028350
H         9.87959701068404    6.40318065577929   15.70488830644676
C         2.12508445482066   16.63691827666841    7.03184377788096
H         1.28993662572256   15.94272913400552    7.09645119530268
H         2.79367516143569   16.29234545189779    6.24817633761259
H         1.74062609520742   17.61381793720880    6.74625417051027
C         4.04407346313344   17.67910609196446    8.27462035184620
H         3.70434984777333   18.68203521183218    8.02472978130607
H         4.73982258326468   17.35507233576329    7.50605803671164
H         4.57748471826125   17.72042289155695    9.22175298467799
C         7.44352699593699    7.05882427905779   16.61477511755438
H         8.02521780571550    6.44099336098072   17.29553148382301
H         6.39000438804075    6.87471987715978   16.81100319031892
H         7.67043095487672    8.10016150599442   16.83010375144537

