43
CSD_code = LAGGAC | q = 0 | S = 0 | Stoichiometry = C19H16N4NiO3 | MND = 4
Ni        0.72238462302487   -1.48291761016146    5.73134979345395
O        -0.00765537293320   -0.76113208329180    7.31479473940789
O         1.37038366459018    0.13986251632998    5.01694768400921
O         0.88145214563089   -5.70734217775022    4.17168684637321
N        -0.52543773664861   -2.95669748604213    7.57087138927162
N         0.09826163583601   -3.08056509636488    6.38822391367359
N         1.41701749240343   -2.22328790241424    4.20046029379674
N         1.99358087206028   -1.31867803666027    3.39233766473724
C        -1.18491886535761   -0.09117881344385    9.75345527640387
H        -0.70553420710121    0.67602426758541    9.16469661030264
C        -1.78979528035655    0.20368997814199   10.95963241999676
H        -1.78884151153210    1.21798770071277   11.33039801575753
C        -2.39825426492113   -0.80244653758608   11.69418747677999
H        -2.87120636894658   -0.57028160165177   12.63719473057534
C        -2.40162004920868   -2.10658177616051   11.22191804455404
H        -2.87746010110928   -2.88642376661186   11.79798464014258
C        -1.79814539981845   -2.41073910365073   10.01711538964148
H        -1.78983389350103   -3.41818695130108    9.63317535040797
C        -1.18569736966201   -1.40115915338901    9.27589746991116
C        -0.53802912422918   -1.69645868570707    7.99196344635022
C         0.17483765944556   -4.27829695400985    5.88510255654079
C         0.83368088044041   -4.56028801974557    4.59263656345206
C         1.43436204224104   -3.46276075528295    3.80489605531644
C         1.92487294977295   -0.09161424712693    3.89717280220440
C         2.51115947157844    1.01000289303593    3.12373936797443
C         3.12554666152307    0.77341013561145    1.89472070244971
H         3.16666879732782   -0.23603445429020    1.51804206258574
C         3.66761371141074    1.82738226438517    1.18511573330418
H         4.14411354165281    1.64711348174705    0.23272357416432
C         3.60179330268322    3.11682960145121    1.69211384817102
H         4.02704525329217    3.93754662325542    1.13303969333283
C         2.99164961711937    3.35537438431277    2.91392903863440
H         2.94217211351907    4.36068963098429    3.30556068964985
C         2.44700987882172    2.30747391481902    3.63027449186631
H         1.96722733328353    2.47004876476920    4.58340066148376
C        -0.41630686374008   -5.43553097274967    6.61890958161932
H         0.03659816056283   -5.51009531516384    7.60647240120743
H        -0.25227941816498   -6.35025547008588    6.05728428568161
H        -1.48219331131831   -5.26723888296905    6.76542958370590
C         2.07640448887399   -3.82468008624068    2.50710409485494
H         1.59706741862322   -3.27475275373903    1.69836865707278
H         1.99119839234821   -4.89446341764987    2.34044649728725
H         3.12400703048510   -3.52634804590235    2.52332586189350

