29
CSD_code = LAGPAN | q = 0 | S = 0 | Stoichiometry = C6H12N2NiO8 | MND = 6
C         9.77702630271517   -0.13180344282373    7.94225347643050
C        10.74756500923032   -1.13281373753822    7.91047824411166
H        11.28834606340609   -1.53281779495613    8.74147909489005
C        10.83018397757539   -1.48739324423994    6.57980871629080
H        11.43926391437605   -2.22360488918223    6.09524800082625
C         9.62243232176531   -0.83328473013670    4.50526195412679
H        10.10497457534210   -1.70987097469990    4.07517146217905
H         9.91672352621975    0.06368088055919    3.95463131405171
C         8.03596021524671   -0.97748040069045    4.41959866811899
C         9.11085880875634    0.61706158229701    9.04593611321858
N         9.96792551132946   -0.72674846081547    5.88930294803215
N         9.31931793517732    0.10069205586753    6.70128626379343
Ni        7.71271850308127    1.40975027681978    6.88928343924838
O         7.52400785307398   -1.73951679664529    5.23882742926891
O         7.48611815053276   -0.23070078915440    3.59623968270493
O         9.47477931774323    0.58055355498478   10.20154266116020
O         8.08219527169885    1.29183074687762    8.63386399191000
O         6.16778001135461   -0.32939856857135    6.99525492600808
H         6.47974717298556   -0.92063508058787    6.26180593102555
H         6.30873897693135   -0.84287498849367    7.79593635027771
O         5.83263117055569    2.49686275718690    7.51825354522120
H         5.22679809918622    1.93817928466576    7.01359473145542
H         5.78295964699430    2.20272638733727    8.43595841148199
O         8.49924739599389    3.58321447055469    6.99480029645835
H         7.64113103316121    4.01656936224544    7.08442474657908
H         8.91008807313189    3.60539074898697    7.86643313453011
O         7.20043204372249    1.81777012253324    5.05715565709100
H         7.74057489030402    2.49503990076351    4.63716580807444
H         7.17317422841014    1.04422176684962    4.40730300143720

