60
CSD_code = LAGWEY | q = 0 | S = 0 | Stoichiometry = C18H36ClIrN2P2 | MND = 6
Ir        4.43619961844469    3.72706522803599    9.22829914209939
P         3.40143815339083    2.18131296459645    7.90347420584264
P         5.31728090942332    4.96665801496099   10.93672050956164
N         3.25969698190020    2.91845231188099   10.71042900945095
C         2.28414358494594    2.03751290001918   10.44296001145960
C         1.36040237445439    1.69497551542002   11.42309152126610
H         0.54863947708262    1.01417109881787   11.20688923652386
N         1.41142760890692    2.17447225688441   12.65543279507646
C         2.45626204006148    2.93572497313279   12.94084453190250
H         2.54033533775380    3.26913881925427   13.96600954068678
C         3.40241030075797    3.29925784623709   11.99157089437415
C         2.25912043852074    1.35231033423203    9.11205836833925
H         1.23892792251740    1.28296178673748    8.72647873841524
H         2.62474269949532    0.33079562454062    9.27331719359701
C         4.64690168020796    4.02505511171728   12.38028204274817
H         5.40022005785591    3.25965247206467   12.60581839538410
H         4.49650665016718    4.64209752955125   13.26952748725853
C         2.21049550988185    2.63095593061334    6.54029686212109
H         1.68713127842248    1.71568909194906    6.23718812503869
C         2.97652296813522    3.21959508538235    5.36064416188573
H         2.28639584433964    3.67370129669879    4.65130248108362
H         3.54703094547839    2.45928945869375    4.83412346338525
H         3.66177553305786    3.98572193329221    5.72183048223489
C         1.19181136401894    3.64615476555290    7.04757482242488
H         1.69819090989986    4.57300822452580    7.30567178091682
H         0.66059919685407    3.29093944455433    7.92848335461015
H         0.45772288541449    3.85560436056801    6.27107098996406
C         4.37212616548076    0.71618144199316    7.28752332789140
H         4.70736644637113    0.24251821783694    8.22099279168907
C         3.54956608216657   -0.28487509244404    6.48301528513410
H         3.30293600168365    0.11282632019916    5.50113910976197
H         2.62489748187723   -0.55295010460367    6.99278734780738
H         4.12948356294008   -1.19516066260527    6.33739130552006
C         5.62493157305443    1.15839993024335    6.53909363139515
H         6.25608198616588    0.29547485571354    6.33245585675802
H         6.18779661516136    1.85737691103826    7.15341820616637
H         5.38583075281340    1.64396426312746    5.59709088320234
C         4.72092382942634    6.68972493647007   11.32398541002298
H         5.13542285413888    6.98613528180524   12.29494300447258
C         5.19300269595397    7.64468189992027   10.23330162769252
H         4.95100673486353    7.22705626289591    9.25656801849213
H         6.26663082557099    7.80514146843243   10.28536986086719
H         4.70143184575598    8.61105756092861   10.33422279411811
C         3.19823237639062    6.69988735446130   11.40954500105413
H         2.84283580891628    7.70884204537937   11.61296366953567
H         2.83070214740884    6.04762547417623   12.19990366742525
H         2.77284771762491    6.37062655588687   10.46352174290464
C         7.14070429407831    4.93813272097992   11.31014287639404
H         7.33075248619074    3.87194573291213   11.49077070081514
C         7.95708202211333    5.33977303974954   10.08624203961488
H         7.85217271939612    6.39774542301619    9.86041047600809
H         7.62362540137599    4.76855722030248    9.22230009517321
H         9.01121330587258    5.12791361905618   10.25732256303416
C         7.53908937018119    5.73520424971193   12.54725718397023
H         8.57513076373860    5.51392066334990   12.79970591152104
H         6.92229108897118    5.47864729742909   13.40725335694173
H         7.46259430275191    6.80528169431318   12.36569549055130
Cl        6.02284108970958    2.04284729922301    9.96820700878829
H         5.33266624574166    4.31494072403933    8.11769506829072
H         3.41995113474541    4.80748101513829    8.84617453932109

