80
CSD_code = LAGYUP | q = 0 | S = 0 | Stoichiometry = C43H33NP2Pt | MND = 4
Pt        4.93334063843910    6.12962323216299    9.99935594496030
P         3.82999334712252    4.20241166424685    9.34879265042091
P         6.88359792272382    4.98594173573602    9.62539276066901
N         5.46025371864850   10.29439978629999   11.23681747824364
C         3.78045894168373    7.73605711761924   10.47360022197429
C         5.02249180117060    8.11087379165802   10.47011906862892
C         5.94570348686316    9.19122731259286   10.65526813572751
C         7.28031158503202    9.10009976057787   10.23861152265249
H         7.62556041560574    8.19546704091997    9.75659830388533
C         8.11887710286310   10.17575154252829   10.44269989558173
H         9.15335394594024   10.13481397227475   10.12900280404107
C         7.61181250547113   11.31293957651472   11.05810967526068
H         8.23426229413498   12.17517614587520   11.24124036091117
C         6.27517741024949   11.31159714235130   11.42899058061867
H         5.83016218574426   12.17638273223907   11.90695348935406
C         1.35663495339002    7.27350228932078   10.38670642489920
H         1.57601008315072    6.27123185921411   10.03898623564201
C         2.41712489695929    8.13939613584037   10.65395952782295
C         2.14928154512825    9.43376719373826   11.11170269519146
H         2.98034045540217   10.09220337979947   11.31898849589254
C         0.84243289994897    9.84072889530369   11.29166169985677
H         0.63513789939939   10.84040026026888   11.64653011317962
C        -0.20681324163237    8.97453243408414   11.02124408591824
H        -1.22726158326480    9.29965494312223   11.16536289171147
C         0.05362392581101    7.69025259152505   10.56871924499448
H        -0.76447623839217    7.01470222396647   10.36080698515825
C         5.10778873949197    2.97277500729609    8.86240786224423
C         4.77535087347711    1.70281818628720    8.40261483672885
H         3.74127540954187    1.39046694790120    8.38764674780660
C         5.76053387873338    0.82890491606896    7.98228297782262
H         5.49089456251983   -0.15547952680313    7.62839381735282
C         7.09193790656422    1.21488449044193    8.01236819616313
H         7.86096178773446    0.53445353601738    7.67709519799659
C         7.43554427674943    2.46732119111472    8.48526180871863
H         8.47390250005654    2.76460769694525    8.52557970077169
C         6.45179381538772    3.34865884990722    8.92012542689953
C         2.61470458754283    3.13986423820339   10.18517165428189
C         3.06092955974780    2.22698217661437   11.13801096363072
H         4.12461325865602    2.10470053198751   11.29727519372670
C         2.15513540103536    1.48401870296068   11.87023674956726
H         2.50850323648838    0.77118444111160   12.60130347659315
C         0.79433601121501    1.65740116787480   11.67224504083042
H         0.08635065863388    1.07686505863731   12.24511550958024
C         0.34329226064290    2.58440098963818   10.74688390772072
H        -0.71729735166429    2.72947014246205   10.60011543179110
C         1.24678515990846    3.32936809841225   10.01179300296059
H         0.89178048418103    4.05581761126928    9.29310533525700
C         3.08836135872740    4.50206659745747    7.70698162057026
C         2.32957006677591    3.57785328048051    6.99746926902748
H         2.09825231412963    2.61432245846751    7.42783046574461
C         1.84867259988159    3.89965265824565    5.74110637986103
H         1.25526095651171    3.18045845733752    5.19491772262761
C         2.12211093037786    5.13752039117920    5.18171893684158
H         1.74280384135627    5.38073779052606    4.20007769731966
C         2.87478898788523    6.06400819463306    5.88491005116513
H         3.08176019149825    7.03325696957363    5.45557738915267
C         3.35263353052995    5.74535642794019    7.14163271558290
H         3.92855604184705    6.46904908014239    7.72520483838371
C         8.02923121057393    5.60426596423588    8.35007995958890
C         7.45346131240602    6.42635489426893    7.38606387789223
H         6.39621509518079    6.66288111417316    7.47398625405262
C         8.21775064332572    6.94652400895381    6.35992165431519
H         7.76526011891501    7.58551524972433    5.61585010785837
C         9.57122431651905    6.65401221273310    6.29635950330199
H        10.17597648586597    7.06311213894032    5.50035922639660
C        10.15279169791088    5.84637510428207    7.26008309510553
H        11.21012364997691    5.62786263733500    7.21409092892476
C         9.38799227054066    5.31900908671393    8.28595914646829
H         9.85244066516180    4.70314754484857    9.04406669890006
C         7.99416209633444    4.50956894765870   10.98372771301370
C         8.86702541599281    5.47399700768497   11.48411817969970
H         8.91121897289023    6.44597637276234   11.01087110681934
C         9.66856774300583    5.19289846025419   12.57295564474367
H        10.34969039783732    5.94247433535399   12.94909497273064
C         9.59344774391323    3.95224227352836   13.18718943542457
H        10.21947759944952    3.73195178595304   14.03927385116975
C         8.70581599881943    3.00044177872569   12.71432193419700
H         8.63568390420824    2.03808671891207   13.20078124858375
C         7.90350310449048    3.27705767195548   11.62178665770912
H         7.20715882278344    2.53294317095347   11.26007758519359

