87
CSD_code = LAGYOJ | q = 0 | S = 0 | Stoichiometry = C46H38P2Pt | MND = 4
Pt       14.36939091537255    4.70833671328337   10.69500713713587
P        13.11483978838389    6.61949177958616   10.49319148746599
P        12.47774526470787    3.52895855158804   10.05268089661785
C        16.04646481774010    3.53546989647999   10.87212543321571
C        16.41805893015253    4.75651504544643   10.98278928459744
C        17.48440280592692    5.69250947015130   11.20476264939209
C        17.25134414735672    7.06163371826737   11.07633039256648
H        16.25520152699287    7.39419043296062   10.81237111444445
C        18.26541007746768    7.97584657826926   11.27336413736607
H        18.07039728282161    9.03332813979232   11.16531979201912
C        19.53268999930982    7.52986132527229   11.61022979463831
H        20.33412161583403    8.23677338820963   11.76912595324996
C        19.77230114700138    6.17257732456696   11.74563983818284
H        20.76356056870560    5.83152753741773   12.01183840664734
C        18.76898852396427    5.23711413546437   11.54684480571724
C        16.10544047443203    2.10635029492057   10.85820711135409
C        16.69014279365887    1.42842245763443    9.78725005112504
H        17.12739926371700    1.99750581815854    8.97851606659825
C        16.69469116158098    0.04826615411077    9.75151833229189
H        17.14863520386406   -0.46688110879043    8.91719600846884
C        16.11524584155200   -0.67247588485352   10.78233243642091
H        16.11483827394269   -1.75249526946760   10.75640480881870
C        15.52955853421763   -0.00570441130302   11.84650913517309
H        15.07216780730059   -0.57173370247502   12.64680141598119
C        15.51196498668126    1.37720233171069   11.90436305127966
C        14.86630333609168    2.10315634664721   13.04274419192402
H        14.27311496576018    2.94947394151294   12.66733386848958
H        15.62226739983376    2.51252910730107   13.71461880109160
H        14.21460807096065    1.44397243055239   13.61156882702108
C        19.04192735983611    3.77356345967599   11.69762759075033
H        18.37433265052816    3.33538666662760   12.43894417133299
H        20.07064468425200    3.60143162144877   12.00507379506443
H        18.86461162236105    3.25279501610733   10.75713022890422
C        11.56649073368672    6.13164180256046    9.62980027994091
C        10.67793335175016    7.08940306840172    9.15269623285427
H        10.89460101706378    8.13807519186680    9.29914199417098
C         9.52235971396630    6.70810879919474    8.49697137236749
H         8.83703722454425    7.45923080871960    8.13211797014328
C         9.24410097579779    5.36291676267390    8.30555190516556
H         8.34268310415076    5.06501328978437    7.79011490585023
C        10.12186037209465    4.40275638893872    8.77241715745896
H         9.90767878997387    3.35382236039816    8.62291530963159
C        11.28388110543634    4.77680826029756    9.43918803035205
C        13.74433741801363    7.85445256609949    9.31012677897705
C        13.38961287845387    9.19783510033921    9.28239573888839
H        12.70492394942164    9.59703530223681   10.01832432369377
C        13.93480535224020   10.03235973566158    8.32234020369849
H        13.66189603801745   11.07788466945203    8.30515335451873
C        14.82907905450619    9.53614367078464    7.38805330713950
H        15.25161320547525   10.19536033525544    6.64400232669893
C        15.19055298608363    8.19827312839888    7.41547996284397
H        15.89733509889579    7.81237726565409    6.69563140324299
C        14.65197995865993    7.36528719735982    8.37586955343880
H        14.94260660822658    6.31917123407071    8.43783323246076
C        12.47184631576257    7.63679747827918   11.85472698769367
C        13.34008210688790    8.54547589359291   12.45744859156751
H        14.33857351364111    8.66831507195749   12.05860836903816
C        12.92971542615151    9.28265831268852   13.55058916122823
H        13.60401303608469    9.99356368864493   14.00577475540491
C        11.65543560115734    9.10501825912531   14.06756980694527
H        11.33392768714137    9.68107458268769   14.92276928863915
C        10.79981334249845    8.17950015114542   13.49379807214731
H         9.81177053458604    8.02984568544274   13.90505656067716
C        11.20550769702146    7.44203729948554   12.39598061346028
H        10.53776470031067    6.71523103277298   11.95390852404497
C        11.42966360293042    2.36313212206406   10.96734885402869
C        10.24948523894684    2.74307360587616   11.59722422006084
H         9.86887573586543    3.74707761404715   11.46660993222367
C         9.56172633615999    1.83588859328113   12.38332705992540
H         8.63948304404060    2.13196493984822   12.86252424462102
C        10.05301919724594    0.55319714056413   12.56113060457178
H         9.51229398876496   -0.15181561168282   13.17537651434337
C        11.24537150264739    0.17878969521383   11.95979229638590
H        11.63754007023765   -0.81697369422174   12.10833602477702
C        11.93618852421092    1.08057080694281   11.17533798857995
H        12.87565127058573    0.80201982471691   10.71494672980676
C        12.82230277332689    2.63542354393607    8.50238819530913
C        12.05681509376932    1.59585946592116    7.98882672679583
H        11.18982845285566    1.23882278331367    8.52733764042881
C        12.42165951222755    0.99880512399645    6.79505841002260
H        11.82902356882890    0.18595167829164    6.40026193866117
C        13.54207189635069    1.43416689022913    6.10680149404127
H        13.82114392200663    0.96033851767225    5.17707525149556
C        14.30932763813711    2.47029298032536    6.61535462555894
H        15.18802084859657    2.80565323017480    6.08387474085290
C        13.94965727284093    3.06367490735725    7.80881846065117
H        14.55161976961487    3.86361214231038    8.24283095685805

