87
CSD_code = LAGZIE | q = 0 | S = 0 | Stoichiometry = C46H36Br2P2Pt | MND = 4
Pt        2.58831359918031   -4.41586331088682   32.47680435274108
Br        4.69726729941293   -4.98542946634871   33.47778476503436
Br       -4.11288644594688   -6.49645400085863   44.00432790141586
P         3.49455827066014   -4.22428980593530   30.32513054655485
P         0.60387895464124   -3.91574316545031   31.52694035997127
C         1.66317932772723   -4.55429767076066   34.26581835827449
C         1.35627555952729   -5.84307430556919   34.69731306984869
H         1.67095069355541   -6.70341792580627   34.11349284196937
C         0.65842825226463   -6.04509970932108   35.87000604036930
H         0.42488012108648   -7.04616507656115   36.20472751023921
C         0.24464007615218   -4.95537742687223   36.63875327406811
C         0.54975557564556   -3.65099353293905   36.22240203565253
C         1.25507034519694   -3.47542083813174   35.04272949675848
H         1.48991576870655   -2.46289888469494   34.73195128099734
C         0.10914368932686   -2.47738653852442   37.04261224706230
H         0.36023721890844   -1.54222941203971   36.54713335081278
H         0.59301887434628   -2.49693945827343   38.01908912182981
H        -0.96774412697649   -2.51072483975189   37.20832530788297
C        -0.47175158897992   -5.17774599899387   37.83122078691108
C        -1.08158687352960   -5.38688803003655   38.85383591816220
C        -1.78634203583772   -5.63387461406421   40.04835781385993
C        -2.10455934915266   -6.94519227268645   40.40703210582519
H        -1.80529807156627   -7.75613905679356   39.75975047206985
C        -2.79113324243684   -7.21009679594769   41.57463294395505
H        -3.03675374691460   -8.22331780735028   41.85288171678248
C        -3.15937742635408   -6.15057827023902   42.38557607073074
C        -2.85282761105106   -4.84238474324255   42.05002837920485
H        -3.15152844888065   -4.03608750614982   42.70369357149347
C        -2.16445269723126   -4.56695775909453   40.88152326142237
C        -1.82144798947120   -3.16191668147470   40.49984313882671
H        -2.15230953391144   -2.45836848961966   41.25937174719407
H        -2.29158098644598   -2.90446505053495   39.55087396366955
H        -0.74480608005513   -3.06122415079735   40.36686534159620
C         2.13773681686719   -3.69693713036994   29.21192839214035
C         2.34183213202443   -3.40514066165818   27.86757237296080
H         3.32958045898534   -3.50746141699604   27.44186141152614
C         1.28631071915594   -2.99044394666531   27.07664109769759
H         1.45284215154420   -2.76672139371127   26.03333499640975
C         0.01558222761942   -2.85846277159901   27.61853292953188
H        -0.80573445339281   -2.53408160740697   26.99705365438509
C        -0.19877041479750   -3.13987142346612   28.95462872146464
H        -1.18508214331289   -3.03613595311565   29.38639592961891
C         0.85787963481067   -3.56276130910060   29.75445221486308
C         4.56999437710943   -2.75867646125753   30.26331979287202
C         4.50076616880221   -1.89354096153591   31.35075238100739
H         3.86335724833128   -2.15506795755151   32.19713308714068
C         5.26414488498599   -0.74215416677670   31.37781959646241
H         5.21528835926405   -0.07960255737246   32.22905889036906
C         6.10277665222751   -0.44996615522997   30.31474071067971
H         6.70429239795427    0.44670518608223   30.33229796159884
C         6.18452526180659   -1.31465720093192   29.23468252508625
H         6.85071515127449   -1.09133220047286   28.41407257254407
C         5.42303436831882   -2.46833347854247   29.20440268553397
H         5.50898551212344   -3.15219696785848   28.37140042379632
C         4.40566497471976   -5.45889848988877   29.36439571454954
C         5.73220187407310   -5.69699199231735   29.72203506969978
H         6.19073962601329   -5.09843601338178   30.49802228398642
C         6.44558281279934   -6.70006226068227   29.09514932601768
H         7.47395333635316   -6.87951860718569   29.37075244043761
C         5.83926642651922   -7.48008313444574   28.12247651128668
H         6.39807571746255   -8.26344260355694   27.63229383272025
C         4.51144385466689   -7.26714435053450   27.78912758399059
H         4.03440539856004   -7.88688553328063   27.04354440533062
C         3.78898457470050   -6.26746076967946   28.41452324456257
H         2.74764615722436   -6.11181225123605   28.16432609789319
C        -0.61758756643126   -5.24917014536028   31.56878930291196
C        -0.79074536564935   -6.12289945874554   30.50060053073753
H        -0.25427840110462   -5.95755095664718   29.57579593177022
C        -1.65028030441895   -7.19995658650974   30.62424572737302
H        -1.78768575212179   -7.87456296416855   29.79189782090395
C        -2.32651270272128   -7.41846834175920   31.81313481558700
H        -2.99314515722977   -8.26274464454170   31.90617356128209
C        -2.14127402539974   -6.56058087390032   32.88676741383313
H        -2.65850612232634   -6.73664336200117   33.81816655392795
C        -1.28637533741440   -5.48209982498590   32.77038267841852
H        -1.12607306465958   -4.81501702794842   33.60673372526405
C        -0.29366593868296   -2.43083515384763   32.06429414635294
C        -1.67749240856635   -2.34259432034478   32.15252288578248
H        -2.29448629411268   -3.19607168773248   31.90788160938112
C        -2.26401809052032   -1.15903948431434   32.56572760701503
H        -3.33966125692260   -1.09309482995685   32.63967203103570
C        -1.47963454845314   -0.06327686853487   32.88569166448896
H        -1.94454276118588    0.85477400924822   33.21277663598848
C        -0.09930790064877   -0.14439017498711   32.78797164082416
H         0.51282846761351    0.71023212633303   33.03573812476802
C         0.49038672693210   -1.32453262461111   32.37904056772538
H         1.56850816761293   -1.40815766723985   32.30223707328367

