79
CSD_code = LAGZAW | q = 0 | S = 0 | Stoichiometry = C42H32N2P2Pt | MND = 4
Pt       -6.29265535584612   -9.54888388340374    3.80421182533391
P        -6.80467996041093  -11.43855646423555    4.98669947160901
P        -5.32887378370186   -8.73192356664753    5.73430366759136
N        -4.70223824612125   -6.45835617263627    3.13672382583224
N        -6.84932717821026   -9.25061328986866   -0.55316613087625
C        -6.49819271380955   -9.34972640993373    1.77720206113154
C        -5.90596022838283   -8.30731270033107    2.27696931074818
C        -5.21240228597972   -7.07430844404519    2.06642702318299
C        -5.06231528502173   -6.57243785518523    0.76640324254424
H        -5.50494429199638   -7.11142008117656   -0.05752880153229
C        -4.34746580512315   -5.40423980578665    0.59429419998741
H        -4.20921398498066   -4.98462022037359   -0.39260784928246
C        -3.80424436453639   -4.77565804106704    1.70793852497152
H        -3.23390513164841   -3.86442164394344    1.61229837291357
C        -4.01730688001072   -5.34798081046247    2.95349608832224
H        -3.61408662957264   -4.89264253539458    3.85115988953619
C        -7.25914505429436   -9.78873935673516   -1.68378804095570
H        -7.15273046303355   -9.16113211361463   -2.56084443264756
C        -6.95709894368998   -9.97230305857987    0.56900177313518
C        -7.47917758911239  -11.27213193778452    0.56916848720138
H        -7.53811913886695  -11.81840659816815    1.50004261999362
C        -7.89895167096775  -11.82222493681460   -0.62442798532474
H        -8.30469656502283  -12.82413163934360   -0.65695402143848
C        -7.79254651970272  -11.06570672279466   -1.78405129348173
H        -8.11267485009665  -11.45526766238326   -2.73808900324821
C        -5.74077379586429  -11.38740557536159    6.48621669992199
C        -5.55974933973964  -12.50862188621558    7.28887659791360
H        -6.06409316148363  -13.43150475010810    7.03969737642727
C        -4.73873029508280  -12.44802680048851    8.39978260774950
H        -4.60416254540436  -13.32352608818771    9.01819707427306
C        -4.08388499602237  -11.26728551318756    8.71738383252457
H        -3.43729583724956  -11.22338416099094    9.58169879627634
C        -4.25704470996098  -10.14704381516706    7.92595593035872
H        -3.74592545916374   -9.22487298314010    8.16680048131306
C        -5.08814192335508  -10.19556193255913    6.81185032985585
C        -8.41194672833582  -11.90102553912985    5.69896810388313
C        -8.76576616104967  -11.57735375240537    7.00430620723066
H        -8.04442005245729  -11.10063058157138    7.65366587469913
C       -10.03548068347319  -11.86756554834887    7.47051643508163
H       -10.30309395144747  -11.62031181237974    8.48781041589926
C       -10.96369548981445  -12.46996844393715    6.63778707397231
H       -11.95327490687684  -12.69734919782004    7.00606739483292
C       -10.62568742385586  -12.77008111837765    5.32698929703156
H       -11.35330006366925  -13.22750662197376    4.67217616758503
C        -9.36060564293499  -12.47757347805720    4.85665478871403
H        -9.09275061952199  -12.69543419835261    3.83081608507329
C        -6.21502500159871  -12.99463301942581    4.24103757473747
C        -6.67615895903478  -14.26899777901200    4.54893105695849
H        -7.46830351001021  -14.40207532577202    5.27321969952630
C        -6.13391215329357  -15.36950923870367    3.90786896459215
H        -6.49731271140458  -16.35947396828890    4.14409494464022
C        -5.13208212867163  -15.20814970272001    2.96491252840724
H        -4.71659507762908  -16.07226423787320    2.46745495640136
C        -4.67051277822398  -13.93875373739227    2.65225309269517
H        -3.89645813553459  -13.81061187362361    1.90980345396523
C        -5.21454713194255  -12.83921580473512    3.28616141382263
H        -4.89163047724685  -11.82799666943747    3.03874198833001
C        -3.59379076245582   -8.27981911517370    5.43752925235026
C        -2.99605271285797   -8.93147684698848    4.36363090415803
H        -3.59700500234829   -9.63378188468607    3.78438455476363
C        -1.68547911530841   -8.66521167215783    4.02419921178138
H        -1.22728866377660   -9.16666821790402    3.18397182843329
C        -0.96133430576521   -7.73853732271140    4.75911668093891
H         0.06196062876807   -7.51792459132345    4.49180776527900
C        -1.55121635503366   -7.08845063272323    5.82974629466793
H        -0.98547349147113   -6.36327155694550    6.39769125027863
C        -2.86474474754316   -7.35729448056914    6.17464848183642
H        -3.32425664747271   -6.83640742389164    7.00347322418441
C        -5.91022875872502   -7.45534510197889    6.88316243779546
C        -6.45988885546425   -7.71859889123683    8.13194515644296
H        -6.50384035880696   -8.73330440282200    8.50343431036507
C        -6.94692576148230   -6.67676542668952    8.90253457958670
H        -7.36816567521506   -6.88172268376281    9.87652715348546
C        -6.89901867399772   -5.37620710782084    8.42967350865380
H        -7.27846938464531   -4.56739937140325    9.03712228722215
C        -6.37662981718513   -5.11394597548361    7.17150022339061
H        -6.35448250727152   -4.10054535841200    6.79697605229751
C        -5.89403861150801   -6.14904217189215    6.39554832153888
H        -5.50281564891424   -5.97471865802957    5.40179645058098

