55
CSD_code = LAHGIK | q = 0 | S = 0 | Stoichiometry = C22H26O6W | MND = 10
W         2.10342482673727    3.26384776746637    1.17992846917687
C         1.62037446050471    4.91130308976563    2.13946236747514
C         2.63187650029628    3.16370428868196    3.06961471976389
C        -0.11142170133385    3.29756271937968    0.60023886963573
C         0.03806383342584    2.56061570709189    1.80538604777177
C         0.86031698447859    1.40156940850126    1.68824374772714
C         1.10909246751669    0.41143754942474    2.79828841442148
C         0.05452943781281   -0.72297906133489    2.74754480610779
C         0.30940839231496   -1.73125497234932    3.86495286270621
C         1.70150901533211   -2.35017536693850    3.72840458797260
C         2.75864331748105   -1.23647036759115    3.76170800230724
C         2.49998436683789   -0.21783848156083    2.65763778599819
C        -0.52100087793633    3.18744080131022    3.03506903670104
C        -0.35305166227789    3.48630875310582    5.35190124990133
C        -1.33907899438342   -0.11339009277610    2.77257540097732
C        -1.91983750624279    0.19801871244897    4.12263128016375
C         1.98068511224453   -3.30200612496177    4.88184903856460
C         2.85450611822348   -4.47776884387679    4.53053459365092
C         3.06872673820948    4.22414047990538   -0.69734009612229
C         4.09777007320458    3.84322538489140    0.21320120995057
C         4.08295417395249    2.41734144678026    0.29675216635963
C         3.05479116574734    1.94036198313457   -0.54309708385525
C         2.42976291592437    3.05082664968844   -1.15154399187652
O         1.42690222464486    5.86290199478351    2.75792910154941
O         3.00923349945092    3.21239379236748    4.15718258980609
O         0.08119405482044    2.80606977991079    4.17788279852165
O        -1.42628087680913    3.98340008742870    3.01751958111842
O        -1.92851953978883    0.11196656247238    1.74422004465453
O         1.54628009163070   -3.11714364044905    5.98957662561912
H        -0.72189162840353    4.19326708477314    0.65535421538836
H        -0.25216351178909    2.72761796346177   -0.31530241437742
H         0.73634466469984    0.88789903327659    0.72872862495770
H         1.05172783955372    0.90794230686226    3.76836026089144
H         0.15559259455861   -1.22878936440172    1.77907625424426
H        -0.44276402122428   -2.52283457901967    3.82588022416777
H         0.24625070022678   -1.25338418317109    4.84234714580429
H         1.78227866117926   -2.89102492023195    2.78049145100114
H         3.75656488874836   -1.66410970620869    3.64272059379749
H         2.71942980719625   -0.73997444760487    4.73301618913427
H         3.25269668900132    0.57226654277181    2.71047552386037
H         2.58391651809378   -0.70654037192960    1.68344565654546
H         0.25606065656180    3.10116234181428    6.16545480415475
H        -1.41284838450307    3.29561285292299    5.53212506343503
H        -0.20231967644569    4.56079140619705    5.23679937858029
H        -2.26478920125558   -0.72732689277401    4.58158975033806
H        -2.76793553175011    0.86877057500419    4.00842511968743
H        -1.17270380255326    0.64300976366264    4.77232282961619
H         3.17854207980267   -4.99188263432373    5.43121280953473
H         3.71740338363910   -4.15328311462798    3.95446235588796
H         2.27890498438275   -5.16890654039182    3.91659453239311
H         2.90379427104331    5.22299859831866   -1.07742578945911
H         4.88588058962808    4.48922202680322    0.58411916947730
H         4.83248248924148    1.81212121633261    0.78987231054883
H         2.87402968615174    0.90318400839089   -0.78935362540895
H         1.69427664220702    3.00388102738135   -1.94234666094499

