87
CSD_code = LAHLOV | q = 0 | S = 0 | Stoichiometry = C36H43Cl2N2P3W | MND = 6
W         5.52611933043445    5.10987340499429   10.49564223310459
Cl        3.34466777067181    4.18322802787293    9.82389759798397
Cl        5.02945457648126    6.82422975174639    8.93417051390084
P         7.35679566951949    6.67417257798509   10.92873207517912
P         6.43989743961867    3.94619057669510    8.55223630774663
P         4.05991422866467    6.17011361787859   12.13706115259639
N         6.09079394674735    3.80350004122173   11.57191894669767
N         6.56737451348891    2.79569846918913   12.27144953309579
C         8.67190318854722    6.96448828604173    9.68785215091940
C         9.94171796683306    6.40901531759394    9.81864230927380
C        10.89509950917431    6.60043351985356    8.83437671971829
C        10.59217362160451    7.33967130329758    7.70298128282722
C         9.32510236924631    7.88082212914975    7.55618371954349
C         8.36958543989380    7.69028575067652    8.53708198842084
C         6.83094467740211    8.41910456989391   11.19011262623946
C         8.33963147520338    6.47909257633887   12.46610238216212
C         6.69755397119427    2.18213762329655    8.92316779761050
C         5.58548445689890    1.46939396273122    9.36516477008018
C         5.70103057090961    0.13801861704432    9.71572141611535
C         6.93336992259330   -0.49175538632997    9.64914057053200
C         8.04502521197168    0.21400278649132    9.22351095570089
C         7.93029885899591    1.54449977144398    8.85823858598949
C         7.94956428446456    4.41014987108753    7.60869391586256
C         5.27665761754618    3.83986857681358    7.13978081615932
C         4.77749256738091    6.79008749107668   13.69734526251212
C         5.54961169851405    5.86852705490324   14.40127242324991
C         6.13729655342890    6.21330570359706   15.60292568036282
C         5.97186607346662    7.49479936781437   16.10758336989900
C         5.21981030603926    8.42101489872146   15.40589911909176
C         4.62127345049398    8.07245404284048   14.20593276757014
C         3.07274208414509    7.55672178186333   11.47460913813176
C         2.70318406619162    5.18093041892975   12.89286812052084
C         5.73009642910958    1.71483748984190   12.57967885899300
C         4.35127707517028    1.88398833014777   12.44217513179150
C         3.49042552264225    0.84290353299734   12.72039487221463
C         3.98485223508737   -0.38405385414851   13.13318193079430
C         5.35474157907016   -0.56555831862405   13.23277258988648
C         6.22877968265921    0.46674779317613   12.95246391493215
C         7.94462500529479    2.77117431699828   12.55318035674869
C         8.42331163969282    2.34724225027128   13.79299272023789
C         9.78294367336783    2.33213628528775   14.03672910835679
C        10.67850202628694    2.73853315568739   13.05967770282966
C        10.20201723953759    3.19459680783976   11.84086758218186
C         8.84365099163702    3.23054549491099   11.59120759340198
H        10.18696501028674    5.83055411305075   10.69659178275556
H        11.88105345858668    6.17271657646012    8.95108770203476
H        11.33940906063714    7.49087366807337    6.93792406978910
H         9.08151442626669    8.45278565523030    6.67234474061513
H         7.37599117284635    8.09410099066296    8.40814772197904
H         7.70785978157485    9.06221154439020   11.27299501172543
H         6.21243829615475    8.75002301108734   10.35854074213202
H         6.25077785057577    8.46834108685453   12.11236112168044
H         7.66686273776075    6.62830422128819   13.30936598352652
H         8.75891024476305    5.47893954101488   12.53648910705591
H         9.13590435861085    7.22265468345820   12.49895556341420
H         4.62996765371792    1.97012570895590    9.44793471271602
H         4.83232814123951   -0.40518569494087   10.05656789578124
H         7.02722921739726   -1.52928555827858    9.93430485589776
H         9.00946852863287   -0.27151862870782    9.17633521366908
H         8.80863405034149    2.08021665020111    8.52943061051918
H         8.82190004747098    4.46553697325499    8.25712895717755
H         8.12415837590037    3.69634268988491    6.80373304946932
H         7.78081764785257    5.39973737288156    7.18376520008172
H         5.12776770652126    4.84708398602688    6.74718210041118
H         5.67988925711017    3.19184041918461    6.36070148075951
H         4.31717148890892    3.45683710134188    7.48468561866039
H         5.68908291218843    4.88052258856335   13.97764063034999
H         6.73003739944269    5.49015130169230   16.14420336183408
H         6.43206017328949    7.77092209483850   17.04465697753901
H         5.09479407219885    9.42094992822767   15.79577992208494
H         4.03384698999616    8.80479921055871   13.67125239198590
H         3.72311994840073    8.35589476539157   11.12095837371020
H         2.51956887490764    7.16291660441452   10.61875832731877
H         2.37035149133107    7.93230196496992   12.21915772208864
H         2.08361178181090    5.83323390080079   13.51027471252454
H         2.10291554013100    4.73493266500537   12.10090381434608
H         3.12353792743331    4.39234475175757   13.51518314419796
H         3.97878794100056    2.83035827260082   12.07826140891747
H         2.42670984636409    0.98995951454309   12.60671891175217
H         3.31118530657065   -1.19776944292152   13.35596128267641
H         5.75173513828111   -1.52817543503156   13.52136774336323
H         7.29277415128912    0.29229883037185   12.99430758565618
H         7.72835486125465    2.04070792874796   14.56038646686437
H        10.14778072200173    2.00245170032760   14.99839406466005
H        11.74033575841550    2.70886439093940   13.25129747952397
H        10.89600030578461    3.51824703007721   11.07849005839503
H         8.44962982948857    3.60688153779199   10.65455376877597

