92
CSD_code = LAHQUI | q = 1 | S = 0 | Stoichiometry = C38H48N3O2Zn(1+) | MND = 5
Zn      -14.23077737087585    3.66202791820228   10.89509442284106
O       -14.36033847300277    2.29056556866250   12.41923252588949
O       -13.28101534634330    4.16332980261847   12.55603615586251
N       -13.87144255147255    5.27821669252025    9.67658604975024
N       -13.62853670001959    2.39015164424816    9.45375888677594
N       -16.20176836902299    3.76605671350157   10.50786819208162
C       -14.47821865451019    5.17842915415606    8.36303227966408
H       -14.23715891660253    6.07876281816995    7.77932975950683
C       -16.00193499923839    5.06112201637183    8.46038628583119
H       -16.40849640659043    5.12704482316046    7.44961917648303
H       -16.39811760708730    5.89747587390323    9.03722283370162
C       -16.48344127708959    3.75072559436059    9.08994823152052
H       -17.57398907167141    3.67878303694406    8.94109757765133
C       -15.84789376247192    2.53894071811806    8.39888055924165
H       -16.09004156363900    1.63666087009724    8.96485973318049
H       -16.30131790996519    2.44803658148866    7.40991108202179
C       -14.32803092457435    2.61735874238148    8.20821882518085
H       -14.04744530921361    1.82752803829645    7.49137408934434
C       -13.91194182772909    3.96636630100844    7.61430744993071
H       -14.26784536762666    4.01198279285136    6.58359813891396
H       -12.82220440956412    4.02873290982392    7.59431824289261
C       -13.66822275344184    3.08651899332431   13.08517863937282
C       -13.28115093264099    2.76645480091537   14.50104745063164
H       -13.00660109557840    3.67426842986580   15.02812310921656
H       -12.42784929359343    2.09177207929239   14.47616995551241
H       -14.10549022592898    2.26368537906453   14.99735075589967
C       -13.13931883438994    6.27241320246017    9.97466437890713
H       -12.68342613749467    6.23812454983681   10.96159112278302
C       -12.79772455762079    7.43411761907862    9.14031646919057
C       -11.49164826494459    7.51398790576798    8.63461674803453
C       -11.13613343199610    8.59922762559762    7.85483942041789
H       -10.13392773138805    8.65441972254761    7.45619766804955
C       -12.03522294588461    9.62354818808337    7.57898183118805
C       -13.31030603930321    9.54241243553539    8.11587287292178
H       -14.01715717568565   10.33843087688892    7.93321496955246
C       -13.70743999708288    8.46463069341531    8.89530521310198
C       -10.50870394387759    6.42044591297657    8.92272041181885
H       -10.87269738193474    5.46119052337707    8.55670123791110
H       -10.34733836496080    6.32627339115442    9.99613055731185
H        -9.55395446251869    6.63007923493333    8.44852975682098
C       -11.61888812474779   10.79836406420874    6.75397993213083
H       -12.48181966964978   11.29991050401647    6.32405280444607
H       -10.94922394599039   10.49246969276440    5.95372442725635
H       -11.08613035650638   11.51626776416834    7.37782433908716
C       -15.08742399676238    8.45889948624459    9.48443189075940
H       -15.19882255278664    7.68194881907141   10.23652313095443
H       -15.83260512109550    8.31087687555453    8.70246842245561
H       -15.29248256292519    9.42086661236739    9.95029697854733
C       -13.02531568039123    1.28491150816104    9.63761238181075
H       -13.08653587375575    0.50405465708605    8.86982478925904
C       -12.24695563868619    0.97076613880517   10.81925524906780
C       -11.21661966818757    1.80912939922420   11.26830830735870
C       -10.50019863369373    1.44119100191364   12.39638734317507
H        -9.69764254566188    2.08055546253247   12.73504355827170
C       -10.78493057520736    0.27964106303873   13.10055075686659
C       -11.80596604311512   -0.54184927243175   12.63664292652023
H       -12.03857347626060   -1.44918928504747   13.17438663605899
C       -12.53089568646181   -0.22417362258738   11.50358719480797
C       -10.82550181149519    3.05884551076794   10.53872838363592
H        -9.76565540338797    3.25829625362958   10.68172576507238
H       -11.38369262930185    3.90538387070574   10.93864653222665
H       -11.02528565829054    2.98025873182393    9.47276708010670
C        -9.99760278520941   -0.09704277688293   14.31447161956169
H       -10.63105499771086   -0.58143765849626   15.05400044889206
H        -9.52581503582994    0.77371865133915   14.76273599739859
H        -9.21227163350312   -0.80111746406251   14.03889613572233
C       -13.65823562241825   -1.10254345366520   11.05727007881752
H       -13.50679029057970   -1.44933076054573   10.03517107559827
H       -14.59619720771341   -0.55018948069542   11.09664754400556
H       -13.74295497205369   -1.97205088685576   11.70305325652848
C       -17.13873616369996    3.53826622269110   11.33772630760681
H       -18.13557907290630    3.27145661230824   10.96651027852674
C       -16.97294391843679    3.60229556695086   12.77639929902183
C       -16.44859594062645    4.73907698550238   13.40872840798540
C       -16.31470786364692    4.73307690167015   14.78796090954086
H       -15.92073494035965    5.61235934098809   15.27666158134208
C       -16.67187141243861    3.63407534808034   15.55628487034044
C       -17.20239943328172    2.52205074909181   14.91322086803403
H       -17.48919696857067    1.66002138637079   15.49774592987994
C       -17.36981947656670    2.49162418363973   13.54125796696759
C       -16.08606797371463    5.98422311767879   12.65535085122442
H       -16.65885592708421    6.07964192831325   11.73596324563041
H       -15.02353371439032    5.96910279321883   12.41065087914781
H       -16.27202203956222    6.85964847801265   13.27436558762727
C       -16.51862423996063    3.65748533024047   17.04296729867349
H       -16.34092996218141    2.65864390371970   17.43371622795846
H       -17.43290720084375    4.03660567100734   17.50030854875574
H       -15.70087212888351    4.30890973336256   17.34075493121006
C       -17.89215347729585    1.25879809008363   12.87096133909293
H       -18.14471714046637    0.50156498597829   13.60796529093606
H       -17.13478750247734    0.85119601072341   12.20253619004725
H       -18.78498491466165    1.47704507921462   12.28531513716259

