34
CSD_code = LAHQER | q = 0 | S = 0 | Stoichiometry = C14H10O9Ru | MND = 6
Ru        2.99845421330106    2.15694007137096    7.33656143687058
C         2.13442276963360   -0.51682258835977    5.68303007973117
C         3.09163213489585    0.17884529801528    6.55291914724088
C         4.25347513086120   -0.45077831833066    6.86150367295851
C         4.81619337686174   -1.80116621471000    6.57757123082957
H         4.18698882185086   -2.59448362677100    7.00070306018729
H         4.89788212387276   -1.98924201319269    5.49978066907261
C         6.39586721409039   -0.62527175757199    7.85057080126850
H         7.31453246573147   -0.18572456338415    7.44352091502925
H         6.57242196633518   -0.82291085281511    8.91596648875275
C         5.22118910211224    0.26923963651965    7.64895162269902
C         4.91329192383896    1.53454684851207    8.03109682579600
C         5.85437610420287    2.24492080025085    8.90682365246335
C         0.16750298061746   -0.24978553277290    4.41864214260891
H         0.60700638897880   -0.49597679139991    3.44978393876173
H        -0.60719211619458    0.50431464525753    4.30542722586311
H        -0.23988716978886   -1.16054197368621    4.86180808600074
C         6.12718514617400    4.15461409688479   10.25658552171709
H         6.25315440364372    3.63870254501013   11.21077705807783
H         5.61241633465968    5.10117154041115   10.40077404995469
H         7.11023483311616    4.31171034358860    9.80860773450733
C         1.15659602920214    2.39310678456398    6.93723011145327
C         3.24988386474516    3.97890078993354    7.81111785668597
C         2.92694690468360    1.51650348375469    9.11290465754505
C         3.57012422563729    2.15339442693946    5.53564894409413
O         6.10505773516315   -1.83855188961077    7.17250833919377
O         2.19776204535988   -1.67767058642632    5.35019476034265
O         1.15125422991199    0.31496904060209    5.27433865837929
O         6.97189462431607    1.87809664653149    9.18759544349134
O         5.30910060273200    3.38405866971523    9.38714115052267
O         0.04523601942017    2.54673487878704    6.75728532189625
O         3.38999131153847    5.08396472536611    8.03526237143972
O         3.00128249858830    1.07984283965480   10.16505671037561
O         3.93322175994587    2.02064859730180    4.46181031414308

