101
CSD_code = LAHRAP | q = 1 | S = 0 | Stoichiometry = C37H55N4NiO4(1+) | MND = 6
Ni       -3.02583058809371   -8.78351653343327   -3.24930601332622
O        -3.77469366913853   -8.23503992506752   -5.22110925972150
N        -2.92410750791858   -9.90155678252721   -1.36091252805151
H        -3.39040979889775   -9.23593674504341   -0.74191415220776
C        -1.55515100959002  -10.04731299736409   -0.83318505981668
H        -1.61535513903713  -10.54949729816515    0.14559162989152
O        -4.32473528355189   -9.86617039586355   -3.99403769750785
N        -1.80475252055465   -7.53430130857488   -2.62719044144031
H        -2.37846987144928   -7.04496074779030   -1.93483033779398
C        -0.92864816875143   -8.66663559959795   -0.61090741863374
H        -0.00723841019871   -8.79514357358619   -0.04207116468826
H        -1.59743814651192   -8.04924704909644   -0.00510026447266
N        -1.38235349481000  -10.12152926353485   -3.97551516255225
H        -1.91101205618293  -10.99199795038152   -3.88762273488176
O        -5.34271682515442   -9.55935524400124   -5.85366270385834
C        -0.58368798045020   -7.94652994227509   -1.91785041000409
H        -0.02931925921401   -7.02903206093843   -1.66663309842483
N        -4.51394617632583   -9.21744533068720   -5.07150215630501
C         0.34022672665765   -8.82222162707126   -2.76468472930861
H         0.56868424921110   -8.31807397341923   -3.70001448348380
H         1.27814625280072   -8.94499980325397   -2.22187210041615
C        -0.24540274941202  -10.20685697998600   -3.04970666125852
H         0.54106438561943  -10.82146983911479   -3.51528342244032
C        -0.64444870070041  -10.88710377816217   -1.73816187368043
H        -1.10968587039876  -11.84642081393399   -1.96323156519272
H         0.26769968795308  -11.09753734192809   -1.17713427462490
O        -4.76059736202630   -7.38175462000682   -2.50376966733954
C        -5.63294079542939   -6.64093282765149   -3.35821716151255
H        -6.11056037895716   -5.83574143518552   -2.79462986385535
H        -6.40267212859094   -7.28039950662866   -3.79507318965883
H        -5.03180758392478   -6.21813502385378   -4.16089354075818
C        -3.72384250780668  -11.14499845899243   -1.25150071344893
H        -3.15425471741297  -11.96472452929828   -1.67921924384145
H        -4.61596830285432  -11.02130057471214   -1.86920932078808
C        -4.11097957398188  -11.44916526675349    0.17790217739204
C        -3.57587747924214  -12.55236035482048    0.85475408385216
C        -3.92340321281545  -12.77338016817238    2.17920874394499
H        -3.50612705886352  -13.62513679859010    2.69570227199746
C        -4.79725354459414  -11.93819474306385    2.85871825882438
C        -5.34712522533611  -10.87137322660292    2.16625552298193
H        -6.05161900779451  -10.22312135939895    2.66694534733151
C        -5.02229550751997  -10.61937033510332    0.84140644937048
C        -2.64952738942775  -13.53251460102043    0.19207921322778
H        -1.69719923192336  -13.07318170158933   -0.06922175098395
H        -3.09806630045252  -13.94623020427915   -0.70970278371696
H        -2.44393912556575  -14.35796406428733    0.86761793876003
C        -5.16924819837318  -12.20678964328006    4.28148751607679
H        -4.36058330641204  -12.70796620818699    4.80725096183990
H        -6.04484335955935  -12.85517439458542    4.31648682627279
H        -5.41474617699257  -11.28425816320242    4.80161791408213
C        -5.69318726332130   -9.44972525516966    0.16934245994512
H        -6.67338507729807   -9.29234386268358    0.61406850968488
H        -5.83073269281583   -9.63017132840091   -0.89494764125425
H        -5.12108761088522   -8.53086494861529    0.32159539925712
C        -1.57409456408195   -6.56439050426305   -3.71658597143710
H        -2.55521866632881   -6.25563622576483   -4.09376975668627
H        -1.06009455180164   -7.07547241991350   -4.52804112232963
C        -0.79447938903715   -5.33462968431006   -3.29410042175770
C         0.39429365363051   -4.99140467130453   -3.95192268695936
C         1.11292936778085   -3.88657263350911   -3.52141868196500
H         2.03189565003942   -3.62915976033500   -4.02672962484515
C         0.68238141188301   -3.09436737122079   -2.46694720553381
C        -0.52444432756994   -3.41276211165015   -1.86746335828133
H        -0.90087600861586   -2.78784410223399   -1.07082632860575
C        -1.27395632966936   -4.50974667289983   -2.27085162752357
C         0.91600109233613   -5.75465328852360   -5.13659391343065
H         0.14348580377056   -5.89432521828110   -5.89037102119481
H         1.30753185598523   -6.72955262112346   -4.84697920381810
H         1.73162046483567   -5.20306068464539   -5.59556329594663
C         1.47754175136911   -1.90626632649758   -2.03074849487555
H         2.54194213558849   -2.12946847856614   -2.04053630726718
H         1.19030034608023   -1.58780143000425   -1.03224824828117
H         1.30603895448822   -1.07557239885600   -2.71511696146807
C        -2.58968094665593   -4.74149361835107   -1.57863480580973
H        -2.99116496384048   -3.78689315536035   -1.24555509343197
H        -2.46247197790778   -5.35714667598906   -0.68506154642523
H        -3.32680197362558   -5.19688290277528   -2.23495049995789
C        -0.96512765904225  -10.04513878973301   -5.39077110287954
H        -0.33944493616858   -9.16519750265703   -5.52152736217356
H        -1.86105627470742   -9.89784621173032   -5.99936597114302
C        -0.23656754653190  -11.28717794707038   -5.85382705211189
C        -0.91802478661959  -12.50736980179852   -5.92756844575157
C        -0.23583101385882  -13.64714158461876   -6.33033808046177
H        -0.77007106949524  -14.58450553137630   -6.38524500647596
C         1.10620054129042  -13.61182760589522   -6.67176536606204
C         1.76126608263650  -12.39055219851577   -6.61719117943445
H         2.80293065908974  -12.34134116197553   -6.89873640682536
C         1.11437427310525  -11.23080763069333   -6.21838386666535
C        -2.37743442316615  -12.65127431148951   -5.59400005879536
H        -2.79977273911171  -13.47663768457040   -6.16214025048299
H        -2.95111698638048  -11.76005201335034   -5.83449000821837
H        -2.52282243804600  -12.88780060058500   -4.53780347771400
C         1.81904125385089  -14.84579091131175   -7.12513127731597
H         1.74387150042132  -14.93617481337452   -8.20886263923312
H         1.37821001345278  -15.73579040009093   -6.68320081521533
H         2.87393910896641  -14.80394490253901   -6.86539522888567
C         1.89586372140176   -9.94606648359933   -6.21319403585597
H         2.89901847982219  -10.12454412629804   -6.58997018287991
H         1.98745657707769   -9.53649282452448   -5.20745133650061
H         1.42831156425861   -9.20056324359723   -6.85492812884658
H        -5.31874064662847   -7.83269225329633   -1.85660317575175

