90
CSD_code = LAHYAV | q = 0 | S = 0 | Stoichiometry = C34H37CuF14N4 | MND = 3
Cu        5.94595161958615   18.15387721406925   44.55252335260609
N         7.59561545190292   17.18549891498367   44.40890648603149
N         7.35711245383086   16.12543521477482   46.50778162488519
N         5.42357500631588   17.45510849304916   46.33198915683221
N         4.70746253738435   19.32298507584143   43.85751234247675
F         9.99065872875472   15.73291626966623   44.17828943131372
F        10.03089037415081   15.75247600501083   46.32651668167813
F         7.68454269920016   13.79949587981955   44.62473721102213
F         8.67375659999697   13.54972913891288   46.53255766269350
F         9.90869738255176   13.25648179582759   43.27678152529726
F         9.69468216988934   11.81763523285618   44.85235387213254
F        11.14995646853987   13.38572154267490   45.03218217862590
F         6.68532467560074   16.93295382756738   49.25111971884093
F         4.66815278413874   16.35014745675452   48.77390356428076
F         7.64855362189265   14.56646073869856   48.82837943594275
F         6.00898400893322   13.95610284437103   47.53126215012747
F         5.64118826379880   14.86175979852075   50.90185470507019
F         4.29877563507852   13.86518315004346   49.54587071213913
F         6.11343279910779   12.90205176364820   50.16425501408865
C         7.95375240187370   16.37982887646653   45.35072344112112
C         6.22389229043616   16.65190774824602   46.94275706124038
C         9.22421324406464   15.50822969849459   45.27209512940063
C         8.84949016612359   13.99498236692942   45.28303371276762
C         9.92670674965085   13.10318030584365   44.59997016941831
C         3.67580604690063   19.79957377191676   44.06164310762996
C         2.40922025410389   20.41771886895382   44.26194927471374
H         1.72042231090168   20.10626801800788   43.47712118783248
H         2.51985587865627   21.50151716660458   44.23631036313702
H         2.01385408945114   20.11457488843228   45.23507020979574
C         5.95716218877731   16.18474854729913   48.38791869080332
C         6.33298206947936   14.69313987407123   48.61399156913042
C         5.58367812165223   14.07450429261216   49.83172845569265
C         8.34552081194569   17.48395679728939   43.24666375222871
C         8.01555374034173   16.85650598602115   42.04277345087596
C         8.69488828088496   17.23703235729082   40.89515194039975
H         8.45496909182144   16.76761238088778   39.95443939822731
C         9.67479232817230   18.20881814509955   40.94146708895490
H        10.19692753800750   18.49260694946963   40.04002494044175
C         9.98639001152460   18.82321351428746   42.14013216286299
H        10.74932388655445   19.58431266704669   42.15937289482243
C         9.33596116753041   18.47279580419539   43.31254662204970
C         6.90336875558593   15.83483611261468   41.98898314122218
H         6.69218679247039   15.49117632581842   43.00635497923537
C         5.63730437633225   16.50763865957873   41.44856817319421
H         5.36521746352580   17.35314974202930   42.08190573555256
H         4.81031734072601   15.80143580737648   41.43455557436410
H         5.80346538481087   16.87305989249926   40.43771302437710
C         7.27308226231973   14.61138374764308   41.15104659219762
H         7.31739007752650   14.85640196616881   40.09317007102032
H         6.52518185918424   13.83386458021842   41.28732848403022
H         8.23887026597519   14.21798380842106   41.45793008329643
C         9.62420324106141   19.16627042587573   44.62537842594632
H         9.46463078312723   18.45219567900212   45.44100561202617
C        11.06041071528869   19.67258181642013   44.74138389262674
H        11.76320771044818   18.88196133010472   44.49030807117865
H        11.25294234661219   19.99174321654514   45.76327025726945
H        11.23452224158538   20.52267047033674   44.08630065886339
C         8.62966024587458   20.31899818574072   44.80371549891418
H         8.78487083025031   20.80929653457886   45.76204384962812
H         7.60334063762253   19.94502281236458   44.76584148849920
H         8.75680748934874   21.05117683692462   44.00902487210043
C         4.19282383646982   17.94866426128404   46.79463736088423
C         3.02028136469601   17.26521426182079   46.44600468088835
C         1.80135181713754   17.82533000056449   46.79392676933283
H         0.88777064767309   17.31074677933418   46.53908978240514
C         1.73799874503606   19.03266277867329   47.46713293880399
H         0.77982723620418   19.45080301949736   47.73989968318178
C         2.90438603721956   19.69472118706353   47.80437099450246
H         2.84773217297401   20.63228395747753   48.33599108675222
C         4.14586351893020   19.17241789937445   47.47210645685467
C         3.07804583324347   15.95323683481476   45.69885316545709
H         4.12340821586484   15.63987375996626   45.61372670980325
C         2.32056745911882   14.85456828495761   46.44642897447989
H         2.66738932661150   14.78595151496573   47.47468208485214
H         2.48745244408848   13.89554891622958   45.96219500779997
H         1.25171165975077   15.05170094940518   46.45600660234796
C         2.52986906594649   16.13182361225719   44.27999750761972
H         1.48968612346648   16.44912089943178   44.30512723639163
H         2.58989512824907   15.19142223607778   43.73773821989890
H         3.11113821448678   16.87912844954708   43.74205031048735
C         5.40937817554303   19.92119878187249   47.82703789370813
H         6.27254949428525   19.32521809119229   47.51359047415623
C         5.51042635328724   20.14274298204945   49.33734161089009
H         4.71324673900714   20.79152509271833   49.69134819252793
H         6.46379411596215   20.60500732697239   49.58177819804446
H         5.44407757204963   19.19582498267130   49.86652527325734
C         5.46666283486452   21.25472568349701   47.07636664044914
H         5.43240883350572   21.08755652713345   46.00115225883823
H         6.39081467950180   21.77572281913888   47.31438803953674
H         4.63228558562682   21.89316077721266   47.35721591071688

