52
CSD_code = LAJCAB | q = -1 | S = 0 | Stoichiometry = C24H21O3Se3Zn(1-) | MND = 4
Zn        1.04678969896670    3.36952579642764    8.40664893113337
Se        2.40758954402422    1.30425538366729    9.32300810253395
Se        0.33880322102461    5.91855669453538    8.43801895603964
Se        0.20071956443362    2.60307973467273    5.97542357305973
O         1.35451671843000    3.45163059888014   10.52313083227519
O         2.70637101524905    4.68241738074514    8.23647232555496
O        -0.79404796959533    2.33412574956908    8.45124271157866
C         2.03572378890396    2.44755334936682   10.73420404204725
C         2.18457493297064    5.79467129746649    8.36696684767444
C        -1.01078762630233    2.05152718364225    7.26827006805868
C         2.55430158998423    2.16154990504737   12.08349881521835
C         3.28232377705774    1.01471610666226   12.38147154628888
H         3.47611717544907    0.30012507153458   11.59284751705753
C         3.74802601926595    0.79844178591948   13.66324741777402
H         4.31285497084162   -0.09753537312786   13.88202638433763
C         3.50292484106349    1.71744507679893   14.67669393680459
C         2.77467669899068    2.86413459845047   14.37539801857513
H         2.57748901309188    3.58832459486081   15.15453882336869
C         2.30422810734612    3.08651583718330   13.09825921777556
H         1.73876357351604    3.97583196976230   12.86116143282273
C         3.99623095805370    1.48190928517042   16.07352907871828
H         4.70484472549355    0.65744694542734   16.10242149020467
H         3.16033318979723    1.23992802468996   16.73096968113274
H         4.47981352305095    2.37553036977192   16.46556816280023
C         3.02165217293724    7.00251869268349    8.46003955122552
C         2.48484133321598    8.28155346894409    8.57123529178425
H         1.40942525920874    8.39555423526135    8.58686833769325
C         3.31527876281414    9.37992207331766    8.65990323064866
H         2.88691109800223   10.36930974651938    8.74575276505738
C         4.69846440906578    9.23393405797819    8.64253144322724
C         5.23199417854991    7.95473481410799    8.53268204246215
H         6.30584775282617    7.82478646136570    8.51922130581598
C         4.40854496985910    6.85134922483071    8.44188405152845
H         4.82044273017489    5.85658878410933    8.35720306781371
C         5.59594957970699   10.43348773603320    8.71570311861127
H         6.54075903116939   10.18313094976866    9.19390899310215
H         5.12109046093275   11.24030883025416    9.27010427062978
H         5.81317845253251   10.79729717873987    7.71021233667163
C        -2.20678002646537    1.28249526629117    6.88989092328435
C        -2.52912130973141    0.99960136163960    5.56579188408592
H        -1.87522686740387    1.35686230485493    4.78213263764487
C        -3.66537101870797    0.27771054118846    5.26516292431777
H        -3.90785361673090    0.06537430211102    4.23280030824250
C        -4.50808383152853   -0.18215315591564    6.27230038360627
C        -4.18290354099021    0.10051493153764    7.59368349866570
H        -4.82797384412041   -0.25017519409047    8.38818791328191
C        -3.04915971541087    0.82409714842140    7.90288810714151
H        -2.79526848999015    1.04684816289586    8.92859366886274
C        -5.72866621897641   -0.98559825179577    5.93399896602004
H        -6.19591662415577   -0.61375341579676    5.02403907268050
H        -6.45438542465973   -0.95126871619146    6.74365349327995
H        -5.45405071321878   -2.02833890617716    5.76770849976963

