52
CSD_code = LAJCEF | q = -1 | S = 0 | Stoichiometry = C24H21CdO3Se3(1-) | MND = 5
Cd        1.14971193788582    3.28953040159645    8.47392235889641
Se        2.52205271230774    1.25803386482579    9.56537608482500
Se        0.52650303761660    5.91031451783385    8.45590855252128
Se        0.26453534194923    2.44461361857999    6.05541991822143
O         1.48711178031621    3.39124225861905   10.83630747307787
O         2.95431739735873    4.76972843097252    8.24245594068469
O        -0.94141794771214    2.23911329586425    8.45504781211567
C         2.18846518796336    2.40005496070527   11.01109156953262
C         2.39018078401028    5.85986446263652    8.32962440631191
C        -1.08119341676152    1.96429062544132    7.26465851432148
C         2.77318783797486    2.09848034336952   12.33212071067094
C         3.51465341333540    0.94903000849803   12.58372439094219
H         3.66980756090715    0.24153524371647   11.78048044277344
C         4.04370076961790    0.72189034949692   13.83851622944394
H         4.61928016342190   -0.17525562859377   14.02162733744558
C         3.85067493971514    1.63275520535164   14.87089988842884
C         3.10848362678317    2.78128116234400   14.61639313820632
H         2.95111071958853    3.49946923153271   15.40993118181711
C         2.57424646328994    3.01412860333578   13.36605297929268
H         1.99902279997183    3.90620709012883   13.16532256063651
C         4.41060382910068    1.37772062914381   16.23889553715944
H         5.22884032631664    0.66229656286054   16.19695826953872
H         3.63540805529890    0.97020836405743   16.88951374851300
H         4.77136580215974    2.30164423365972   16.68730457161735
C         3.16302644752520    7.11627751909873    8.33508077466965
C         2.56226434617108    8.37049751377505    8.37196191457719
H         1.48284836496945    8.43111389694069    8.39649508822350
C         3.33560509592202    9.51366035966825    8.37721776682896
H         2.85711610887694   10.48315301643368    8.40556415958051
C         4.72386334271744    9.43786324679125    8.34855397442539
C         5.32180297206801    8.18296215430651    8.31315353456188
H         6.40077736980005    8.10779618616932    8.29212462237300
C         4.55561210110256    7.03557368165904    8.30549068792197
H         5.01833545470563    6.05985434607001    8.27861872395167
C         5.56080017226232   10.68251357014860    8.33135310210799
H         6.49852314053651   10.52679236558578    8.86123169792160
H         5.02949229390379   11.51429189578319    8.78889110336025
H         5.79790202890536   10.95736317573733    7.30240486789951
C        -2.28341954516312    1.26173903082107    6.77960675332597
C        -2.49704999562243    0.97254862846446    5.43538022615081
H        -1.75211823915097    1.27383075622745    4.71186549894132
C        -3.64264940141478    0.31429423878991    5.03836299553088
H        -3.79965733473330    0.09617489437040    3.99078937876758
C        -4.60319156299012   -0.07362909385413    5.96704662394834
C        -4.38677051228087    0.21551048694772    7.30914889431006
H        -5.12422700393944   -0.07917687982344    8.04375846072916
C        -3.24408386291286    0.87513649831101    7.71405194367900
H        -3.07507716010845    1.10258412095578    8.75637031895245
C        -5.83407938159117   -0.80919435137751    5.52682903419789
H        -6.17738468342440   -0.44468057473632    4.56054290255577
H        -6.63613625101877   -0.69568477065890    6.25298872462731
H        -5.61597742749494   -1.87344374859655    5.42566260888215

