91
CSD_code = LAJHUA | q = 1 | S = 0 | Stoichiometry = C46H40IrN2P2(1+) | MND = 4
Ir        3.25096097364486    2.52058654382981   11.32200098848727
P         3.25847829510375    3.88108031172606    9.43465089115997
P         3.55191167504819    1.19887027017641   13.21271479818055
N         3.33117519042862    0.88820565158426   10.21268711299929
N         2.94668168556583    4.12532481492831   12.43289821440252
C         4.36390260889309    0.02894700343292   10.18239416029862
H         5.25602460861500    0.32786074187025   10.71667770568261
C         4.32481699389455   -1.18011631268322    9.52006193211784
H         5.18902448937376   -1.82433960895837    9.53583946548954
C         3.16974275706145   -1.55076215511547    8.84757953463429
H         3.10619225762307   -2.49215642720809    8.32677123623578
C         2.09944651495728   -0.66838751846513    8.86679787606467
H         1.17800856084558   -0.90074886573110    8.35804250277214
C         2.22186996697340    0.52449688204448    9.54640598555752
H         1.39700180849883    1.22523228353707    9.56471596665586
C         3.76082841500312    5.19297985107433   12.48445996988131
H         4.70440756383658    5.10559442440196   11.96220089332250
C         3.44333168943332    6.35635872802758   13.15378793918827
H         4.14181866182473    7.17748570244699   13.15603412428940
C         2.22533598344085    6.45325593499839   13.81023380058382
H         1.94602949120336    7.35150753306811   14.33622925069146
C         1.37925468718035    5.35469296782877   13.76822134922849
H         0.42202010790033    5.37052807642279   14.26353942223599
C         1.77471258263810    4.22595820604579   13.08318258727087
H         1.12745498413648    3.35903944418273   13.04709644563039
C         4.88904394465487    4.43152584882174    8.83625780860470
C         6.02178726895570    4.13460109005536    9.58306515182560
H         5.90736719890048    3.57874111422860   10.50530662973872
C         7.27260237787025    4.53343412152326    9.14695912777655
H         8.15020239245411    4.30034047077537    9.73126612985584
C         7.39581699320727    5.23006882793737    7.95636917936477
H         8.36975607687049    5.54294262153036    7.61260218026857
C         6.26980987773358    5.52091245237355    7.20068508929970
H         6.36897482026601    6.05851784505861    6.26983319370024
C         5.01921648001921    5.12216487246313    7.63390285973728
H         4.14044025193978    5.34095874149430    7.04249428092579
C         2.58855430986220    3.22996955254843    7.86469320205889
C         3.32718796859015    2.21760402327299    7.25275639311061
H         4.26573546253352    1.90483508872914    7.69318544389551
C         2.87818067419033    1.63263327392262    6.08545389673757
H         3.45929129741533    0.85348237788563    5.61548377421391
C         1.68339762077600    2.04909947698474    5.51859874286358
H         1.33123827506597    1.59415244829444    4.60564597236466
C         0.94703612953714    3.05515741004562    6.12035538745254
H         0.02186856589367    3.38822250901437    5.67454457968784
C         1.39243483195327    3.64347511003497    7.29231273770971
H         0.81461980708538    4.43414264494173    7.74888369926792
C         2.34155695203157    5.43998897388018    9.68006493557756
C         1.02412232847766    5.31932278496907   10.12091282062326
H         0.59318966671984    4.33197531369855   10.23533625702034
C         0.27556761167932    6.44217871444335   10.41378039700334
H        -0.74695972637232    6.33947255445205   10.74508455638280
C         0.84345846088959    7.70051335910229   10.28847555913097
H         0.26265200627879    8.57986965484228   10.52039631524652
C         2.15720352038984    7.82706483026223    9.87116713536171
H         2.60239174237562    8.80626714579953    9.77983694795475
C         2.90844989853891    6.70326432842847    9.57123578515345
H         3.93533068097332    6.81264418657075    9.25421783309485
C         5.25789165631847    1.02429451468187   13.82865273476976
C         6.30522294793050    1.56012433385239   13.09039006746898
H         6.08128562386837    2.07446170472602   12.16423348012312
C         7.60876041903154    1.44711773307403   13.53977746723665
H         8.41949765574461    1.86486864818705   12.96173268714674
C         7.87020367940731    0.79887916603294   14.73533762159352
H         8.88568680222743    0.70837824671756   15.08925771313478
C         6.82801797793287    0.27118701810934   15.48294568398706
H         7.03349520670359   -0.22776244631516   16.41793088649345
C         5.52473669224702    0.38399815569606   15.03638685200391
H         4.70967857958711   -0.01962811491871   15.62178713442405
C         3.00371902059831   -0.52497594839478   12.96905485150988
C         3.83042991599900   -1.63327470161150   13.10048285723722
H         4.85123866370071   -1.51366368111990   13.43297804843898
C         3.34702640104171   -2.89626860412969   12.80307205411111
H         3.99324252494056   -3.75409193655671   12.91222166757223
C         2.04429035843592   -3.06270829997581   12.36570386233475
H         1.67290891355226   -4.04946540477112   12.13597820300288
C         1.21813508889389   -1.95952304922749   12.21732068690883
H         0.20350332380015   -2.08486405511757   11.86992346959360
C         1.69913322438677   -0.69815912567360   12.50798411650702
H         1.06550234058201    0.17056912314710   12.37560659110259
C         2.73851273353331    1.69359442736281   14.77174389509360
C         1.64630082251237    1.03912840202101   15.32674737291163
H         1.25535143517616    0.14388504317395   14.86499637108989
C         1.06723678959121    1.52314198883450   16.48794237308523
H         0.22483156981532    1.00438319371117   16.92020453566371
C         1.56552722184659    2.66262996377463   17.09605719432254
H         1.11015052091007    3.03527204752878   18.00061827236535
C         2.65561563514940    3.31979375736767   16.54644669371046
H         3.05198970990307    4.20463475737526   17.02139805033119
C         3.23708742790635    2.84007026110888   15.38970684999725
H         4.09543079628604    3.34303462981321   14.96199149867344

