69
CSD_code = LAJJEN | q = 1 | S = 0 | Stoichiometry = C28H32N6O2Y(1+) | MND = 8
Y        -3.61569076111330    4.73369185782455   14.25434415933782
O        -3.82408262485378    4.22091241028593   12.36842521915781
O        -3.40685735415053    5.24384404081211   16.14115090196327
N        -4.30559985257544    2.90373574851267   12.63061869771886
N        -5.80926989092307    3.83114971449682   15.01778432562426
N        -2.51812245211284    2.61763950556615   14.98410531601138
N        -2.92513078226971    6.55990257200055   15.87332846675497
N        -4.71940115908874    6.84459748989268   13.52445149429571
N        -1.42253590394747    5.63308829517548   13.48873259651905
C        -5.63898351456960    2.77099236659476   12.04567170020302
H        -5.97236817576269    1.73675776597439   12.17685334292964
H        -5.61532025966929    3.00514800769204   10.97061109787012
C        -6.62458570941705    3.72742884568161   12.73560700089164
H        -6.23448978644484    4.74464929990370   12.63534276197312
H        -7.59165159777709    3.65828793445355   12.23708583107375
C        -6.75920805206558    3.38280510973787   14.18683912029300
C        -7.82093941363644    2.60057134615824   14.63441337253528
H        -8.56391772760498    2.25553820315518   13.93209270611467
C        -7.91706816009070    2.28072099215355   15.97591233452183
H        -8.73394022262758    1.67787042012005   16.34224956618328
C        -6.94450266003312    2.76427535966867   16.83854189243331
H        -6.98407450503837    2.55635438510729   17.89561049755123
C        -5.91850366578716    3.52972959610944   16.31553758431473
H        -5.15269810924289    3.94529569469052   16.95847329664497
C        -3.38687855768765    1.94304933479846   12.02172663394810
H        -3.27227119143643    2.14502888143733   10.94600445707941
H        -3.80087715853554    0.93832301482045   12.15258942732488
C        -2.00452760994903    2.02750683887439   12.68820473510855
H        -1.32158379026312    1.35201571782219   12.17264515935654
H        -1.64413306135583    3.05581599638720   12.58966089344807
C        -2.10115983733939    1.66643007671898   14.13843390782467
C        -1.79554242530643    0.37820802265348   14.57036072004292
H        -1.46663298263736   -0.36099791855428   13.85641651752865
C        -1.90897316110362    0.06142889065835   15.91123147634848
H        -1.67445874066252   -0.93073463832464   16.26554272487074
C        -2.31962384744143    1.05386727246642   16.78890279998233
H        -2.40774543401287    0.86125212650672   17.84593838626745
C        -2.60988513535536    2.30683552657298   16.28098884446122
H        -2.91080459447574    3.11512915581707   16.93566379997247
C        -3.84180852407336    7.52324128309184   16.48144961083753
H        -3.42818656954905    8.52739803130283   16.34511161861828
H        -3.95221773076998    7.32549612384175   17.55839323302813
C        -5.22696844037205    7.43640764042558   15.82123403871737
H        -5.58585189019795    6.40788415241789   15.92330743054816
H        -5.90818684069984    8.11195972437278   16.33901600085823
C        -5.13858958456896    7.79507932020583   14.36985652939344
C        -5.45508535198584    9.08006071281447   13.93613632934719
H        -5.78524764325740    9.81899169817565   14.64978546813736
C        -5.35106850764890    9.39392691638215   12.59380678428784
H        -5.59449836919501   10.38342775340582   12.23807380388900
C        -4.93777256240195    8.40215757450912   11.71664114987382
H        -4.85652483725335    8.59252930509850   10.65865145051569
C        -4.63576048462162    7.15273784941453   12.22639863052940
H        -4.33175543706222    6.34497329815852   11.57244920273994
C        -1.59066699724171    6.69420833555641   16.45586198006260
H        -1.61362651990747    6.46605788595354   17.53221941525034
H        -1.25628307173408    7.72736588839556   16.31867453750415
C        -0.60655388732871    5.73283376479402   15.77070148132132
H         0.35962909260645    5.80046872621672   16.27111950421956
H        -1.00009215836605    4.71710349151656   15.87351749089962
C        -0.46759010818181    6.07252305669821   14.31872501012783
C         0.60303263938828    6.84148475118766   13.86933982127184
H         1.35032319707768    7.17910708416104   14.57067758328703
C         0.70234066149554    7.15777963789324   12.52721033911486
H         1.52634297795557    7.74993095580147   12.15940199154284
C        -0.27666088830363    6.68490608713792   11.66595640051226
H        -0.23555080296026    6.89122085047436   10.60863477748138
C        -1.31108107199831    5.93201773801002   12.19063262962829
H        -2.08210042045746    5.52447510225591   11.54882198993657

