88
CSD_code = LAJJEM | q = 1 | S = 0 | Stoichiometry = C42H41IrNOP2(1+) | MND = 4
Ir        9.43197770117584    3.35123984563739    1.62736347684984
P         9.24067781656195    2.19296441238276    3.66842920914837
P         9.51594911821946    4.33577053788540   -0.49822067727180
N        10.93013309787738    1.97514123132955    0.85850969814573
H        10.95605562240327    2.11400497903216   -0.15774114026421
C        10.80796019845516    0.52155739454155    1.04934984208005
H         9.83689700763602    0.19091418394194    0.67238344080104
H        10.84745146214057    0.31134180279280    2.12171863492002
C        11.92206209711466   -0.24096287664783    0.33571857022031
H        11.80213905782249   -1.30898591820669    0.51868842603907
H        11.84444484245794   -0.07710436928558   -0.74307125510006
C        13.28531814755435    0.23456073096482    0.83024166292999
H        14.08136053645025   -0.27356673398066    0.28587542960182
H        13.39464079473126   -0.00819777466023    1.88994399578988
C        13.39627844348551    1.74491049118586    0.64188159465201
H        13.37341492563459    1.99098731269724   -0.42355064640001
H        14.33972099985848    2.11160351923238    1.04660213482799
C        12.23892621189865    2.44084401943924    1.35368469503386
H        12.31173478943093    3.52295143016557    1.20762826913935
H        12.29683375977495    2.23303501740293    2.42465752901205
C         8.36376454793035    4.71133455029762    2.26675449135649
O         7.79481935463845    5.63100326168058    2.66470951014202
C        10.81617449374500    1.77401693114856    4.47834188416212
C        11.62291581155496    2.86099060636815    4.82012341373040
H        11.25695659228512    3.86363950068002    4.63357880875529
C        12.86726795343348    2.65780537722593    5.38508961273456
H        13.48131645631823    3.50259523045811    5.65757132586008
C        13.32653614899972    1.36585387617710    5.59609300042566
H        14.29846557718052    1.20387000985805    6.03559605503458
C        12.53972593408024    0.28372711775905    5.23886757319369
H        12.89933685910894   -0.72180494270323    5.39735914901441
C        11.28829352509610    0.48199492801172    4.67819973633719
H        10.68273703489064   -0.37107508058084    4.40443953961568
C         8.28855664193103    2.98669301913954    5.01085606622505
C         8.76093491513887    3.18836466163495    6.30069525938198
H         9.76915684333952    2.90723105248884    6.56833773376513
C         7.93316859888129    3.75634509912292    7.25517236074101
H         8.30549550257002    3.91431925625632    8.25605326742474
C         6.63682608757914    4.11687530740507    6.93230704486545
H         5.99788766880148    4.55999382148822    7.68039177328489
C         6.15789084553117    3.90514347098785    5.64821124472444
H         5.14556254040788    4.18016068014700    5.39514036591592
C         6.97913222881791    3.34176059903547    4.69239953901955
H         6.61489921558764    3.16730529921846    3.68722794690442
C         8.27928798714906    0.64843072853597    3.58594785319546
C         8.13160768025909   -0.17384193867418    4.69939467162574
H         8.62099525443108    0.08350544274243    5.62862612177540
C         7.34449332696362   -1.30745605270358    4.61653118333531
H         7.23502896850509   -1.94824970201625    5.47817182897840
C         6.68625480503257   -1.61598841810618    3.43574292399510
H         6.07161378581921   -2.50096602350866    3.37812768042836
C         6.79977203813287   -0.77953571096329    2.33748767889401
H         6.26527788345684   -1.00566599701125    1.42705398122096
C         7.59216545043776    0.35112178028725    2.41535339163625
H         7.66787064149892    1.03580750550410    1.57745586888323
C         8.56072451908317    5.84569402649830   -0.84931664556298
C         7.21032940984100    5.80119986223190   -0.50925851146023
H         6.81643725465581    4.91197598593254   -0.03192073313018
C         6.39083292163833    6.87944623452123   -0.77819653210280
H         5.34590668695073    6.84296383231901   -0.51128460261353
C         6.91469062518207    8.00928299194964   -1.38808928353447
H         6.27724096673348    8.85500195313856   -1.59457446533038
C         8.25456616288969    8.05371352188088   -1.73344776052345
H         8.66125259134827    8.93177582404502   -2.21194514343856
C         9.08095092172189    6.97437514487118   -1.47005329595856
H        10.12528082205206    7.01805220597574   -1.74516453792607
C         8.91980461089101    3.28540303789031   -1.86359252859377
C         8.38735179522780    2.03240684064186   -1.58648202452759
H         8.33759261903957    1.69584196940178   -0.55779262883808
C         7.90575923789804    1.23582285088065   -2.61000345371693
H         7.49255724862172    0.26285149126122   -2.39013736931820
C         7.94999010833584    1.69342525419512   -3.91635356005081
H         7.57498870259002    1.07479865378836   -4.71687731293548
C         8.46475902443524    2.95061635685495   -4.19712229818638
H         8.48652026177418    3.30965610035025   -5.21467959927488
C         8.94465169406794    3.74931590927575   -3.17645378697263
H         9.33657518401750    4.73436769634411   -3.38963325485746
C        11.21774234651386    4.76267737498037   -0.98109356338777
C        11.84516931440542    5.75869035219237   -0.23190136876778
H        11.28275596703554    6.26528291497030    0.54292676988122
C        13.16169645831110    6.09369180241084   -0.48307476086738
H        13.63861286113517    6.87437334968029    0.08960745154403
C        13.86951073369720    5.42334257268143   -1.47017742270859
H        14.89728808375189    5.68451510559876   -1.66848420406009
C        13.25905806582039    4.41731241967675   -2.19988375446040
H        13.81169870582900    3.89225432491792   -2.96455641377995
C        11.93803164001309    4.07993818063979   -1.95481053998222
H        11.46660662471236    3.29631937468732   -2.53347564135179

