56
CSD_code = LAJKEP | q = 0 | S = 0 | Stoichiometry = C28H20FeO4P2S | MND = 5
C         4.00339828788208   12.15912943741882   11.24877769154705
C         4.44398432420814   10.89125891120178   10.86728460167389
H         5.38222210124615   10.77600302271016   10.34442836296448
C         3.68101405918100    9.77700859033316   11.16178867027032
H         4.02631853984467    8.80014604783369   10.85618646367325
C         2.48106455438366    9.90996853474227   11.84361753865029
H         1.88871132804385    9.03574643508397   12.06887050382715
C         2.04744573800681   11.16420371482087   12.24068869839136
H         1.11843059463513   11.27149892491105   12.78064015411048
C         2.80374305987603   12.28364941852985   11.94412034682676
H         2.46924746196342   13.26689910617017   12.25022540755448
C         6.64699261662475   13.22533080695868   11.17431789743771
C         6.99121927797411   12.22501757077790   12.07948037498383
H         6.22136797741322   11.64750455743522   12.57211441999953
C         8.32365714617161   11.97871589522065   12.35944421041990
H         8.58523629307615   11.20047588842985   13.06146921150408
C         9.31716065266166   12.72782098523837   11.75110327130405
H        10.35528148594617   12.52755908577550   11.97075222900623
C         8.97687662299899   13.74751224994900   10.87609257951912
H         9.74646767262897   14.34702554274323   10.41348951452498
C         7.64832782588421   14.00874055444972   10.60041898089235
H         7.37991820079907   14.81568160470321    9.93142537078973
C         5.31527628342962   11.83348728684129    7.96686896274105
C         6.61275940088799   11.38823082991947    8.20486686941651
H         7.29416745056490   12.01023696113762    8.77038146860627
C         7.02085279041103   10.16348104484655    7.71322047567446
H         8.02508214197713    9.81553807127129    7.90476764403296
C         6.14346440535660    9.38910589033668    6.96941698605878
H         6.46280536020295    8.43263427452819    6.58330726137567
C         4.86390582141615    9.84854796614688    6.70662191641222
H         4.18743775178576    9.25475795673247    6.10967319574373
C         4.44465610957335   11.07228697277263    7.19953006027355
H         3.45076804979408   11.43512723210147    6.98076026124201
C         3.11387215391257   13.77430183524178    8.27211238590486
C         2.71891069035217   14.96038613153628    7.66464041415282
H         3.47443864565814   15.65469032436751    7.32148441807903
C         1.37468201371833   15.23837102827426    7.49631327261838
H         1.07243056082343   16.16285321994338    7.02759268025053
C         0.42205609378980   14.33524003897184    7.93682654501012
H        -0.62806117719773   14.55526589935761    7.81576419491611
C         0.81422971428163   13.14736332826114    8.53382662204440
H         0.07176326601108   12.43978643052026    8.87313816366337
C         2.15573103392273   12.86112984070219    8.70478156489565
H         2.45510112602045   11.93002610751549    9.16402365872516
C         2.53595177301379   15.60537228968543   11.00270554048767
C         5.77546293600783   16.30606340562901   12.04961847940289
C         4.35823595083244   16.87245371390360   10.16310403485919
C         3.70865806694962   15.66851554392437   13.16272355281362
O         1.42535375938944   15.64227615770249   10.71370320380570
O         6.75105064093894   16.76366837447485   12.43646960142796
O         4.38148357176624   17.70454069169906    9.37775237532404
O         3.35162356213401   15.72328826333460   14.25231505115961
P         4.91804138500599   13.67470931857221   10.82013704002991
P         4.89966109898078   13.51512336827756    8.54323060213397
S         6.01250772040826   14.83479589637256    7.65511476816259
Fe        4.23445402639852   15.67174741963258   11.46657022870258

