73
CSD_code = LAJKEO | q = 0 | S = 0 | Stoichiometry = C24H44Cl2P2Pd | MND = 4
Pd        6.35581699657802    4.62608606465110    0.32045132822986
Cl        6.66377437675837    5.75643470338008   -1.66045940645335
Cl        5.30444088923315    3.01177374571813   -0.94725438754354
P         6.98426304055105    3.03831380224215    1.87447611038861
C         7.38031717535947    3.54733881515302    3.63048010469850
H         6.39786941474840    3.76587689713669    4.06446419838006
H         7.76936798493124    2.65595515793993    4.12229718834040
C         8.32148249241112    4.67234742870600    3.93621705954272
C         7.97692077310342    6.02735410707257    3.85487463239634
C         6.62842132453010    6.48498873780496    3.38853846044031
H         6.40449408120674    7.46197109617215    3.82015164283664
H         5.88225224791719    5.77145083276516    3.74200809372555
P         6.32637863278049    6.59582541336677    1.54338763460854
C         9.56935858055382    4.33094919958263    4.46026131150870
H         9.82991676351873    3.28676954780449    4.55967959701615
C        10.48167050456185    5.28037618758268    4.87289730638681
H        11.44234855691628    4.97760503252837    5.26005941266092
C        10.13101718158103    6.61653690302311    4.81730445051904
H        10.81004807122381    7.37889788672446    5.16708199180372
C         8.88684546873118    6.96801687933894    4.33361313911006
H         8.60620059015531    8.00968935182412    4.35793554254793
C         5.93280768913755    1.49014970014182    2.26857247590392
C         4.49905427224468    2.01899736196522    2.37248602566224
H         3.81185388762017    1.19929348260529    2.57488003816823
H         4.20783724423941    2.47787197650634    1.42708200943998
H         4.39913030936822    2.74579375700335    3.17896133203961
C         5.98373168641708    0.47230297226960    1.12980684944052
H         5.20385428641311   -0.27307637734975    1.28303272394022
H         6.93729599874655   -0.04919913826788    1.10236432104944
H         5.79727521437910    0.95875968346506    0.17585503935172
C         6.29253217543758    0.76899143182799    3.57136164949396
H         5.70937467803993   -0.15008497866599    3.61981507692478
H         6.04183896306846    1.35523597994275    4.45215442961104
H         7.34263991556099    0.49077858763561    3.61175076314841
C         8.67217332429824    2.57165252459138    1.12663872166444
C         8.50391014036111    2.09954978313430   -0.32103229405077
H         9.48869456623050    1.96940253714657   -0.76994806127601
H         7.96605208057611    2.85081398170391   -0.90832625028761
H         7.97183960304512    1.15831778535840   -0.40049124025851
C         9.44115780518954    1.52304353563424    1.92606989136865
H        10.41871271221532    1.37136400258193    1.46948574040926
H         8.92345041797182    0.56712604862256    1.92406268921957
H         9.60183537012540    1.83584419182128    2.95383332041470
C         9.46748488923141    3.88284300504614    1.04576001760211
H        10.41509480092840    3.70301338460738    0.53906110339360
H         9.68366782877555    4.30335546957165    2.02341447451926
H         8.90452801994854    4.62076155845547    0.45379037072409
C         7.24877564302534    8.17427183330193    1.02271209871294
C         8.66904335690419    7.66898273107188    0.74752075558851
H         9.32289009228347    8.49892739548856    0.48524077051000
H         8.64877691473225    6.97288221742668   -0.09147882474926
H         9.08633792855690    7.16514885907675    1.62022618538820
C         7.28436516511720    9.28231297936964    2.07632034037067
H         7.71583710451533   10.17289393686939    1.62058864432305
H         7.91045656650469    9.01784158964398    2.91951874987876
H         6.29390533019778    9.54349423280350    2.43613069849861
C         6.68540458680911    8.77060513639649   -0.26767026226012
H         7.38579173651981    9.51448771002862   -0.64628020496250
H         5.73387795105500    9.26887763007302   -0.09796687395217
H         6.57032320660245    8.00426316246787   -1.02983953299555
C         4.43685957199055    6.88494974581820    1.53763798957204
C         3.98221153681096    8.20218531893388    2.16229718271427
H         2.89315884803166    8.21831003977495    2.20114558373258
H         4.30183512948350    9.05510794847290    1.57043136109577
H         4.34959910977128    8.31382405904315    3.18070281745168
C         3.94101441553754    6.78778903765387    0.09043321537640
H         2.86408957703202    6.95360703829060    0.06019396723828
H         4.13948090449596    5.78496752591175   -0.31224858528351
H         4.41529872575903    7.51374980109213   -0.56188537947005
C         3.78606283274046    5.71422627127698    2.28655570740414
H         2.72200659453794    5.68557589260503    2.05460480302512
H         3.87933536390639    5.80093185112698    3.36748240792186
H         4.22892878016522    4.76982601811815    1.94751975612410

