57
CSD_code = LAJMUE | q = 0 | S = 0 | Stoichiometry = C16H38N2Zn | MND = 4
Zn       -0.98869995770340    0.67584612710341    3.07390321380306
N        -1.02108835446907    2.65573284645674    4.60856603080025
C         1.03357312480798    0.16131901580277    2.90355166683614
C         1.60000422571964   -0.93005340005360    3.81737827401175
C        -1.38287281711498    3.76142377048928    3.72736407202161
C        -2.04867797797106    2.48050775165721    5.62631728770357
C         0.24768588748599    2.92206269532799    5.26999446197362
C         0.86673314936609   -2.25269207973166    3.59588798298157
C         1.45492089837881   -0.53130492982591    5.28654238123377
C         3.09219396335201   -1.13891524075922    3.51142384163427
H         1.64421841988769    1.05636767060136    3.05562886153530
H         1.23005179814421   -0.14910447596040    1.87201518723232
H        -1.22290636383630    4.72923285402409    4.23334704352820
H        -2.44637760933824    3.67683604272626    3.50161277658945
H        -1.77962579253984    1.64366581985408    6.26753736433543
H        -3.00099908680319    2.25575366520197    5.15378946111488
H        -2.16247619977328    3.37917248184470    6.25003605569049
H         1.05083672379722    2.97638488259434    4.54092404985093
H         0.46971740421681    2.10992452940993    5.95667515074624
H         0.21819922040945    3.86521322374204    5.83640900132807
H        -0.17304740980872   -2.15723969635885    3.90004503595242
H         1.32532464209024   -3.04983687859412    4.17923461515813
H         0.89765518872281   -2.53699772435667    2.54624248038087
H         2.03120902297301    0.36735270463505    5.49653896195552
H         1.81452728394345   -1.32622413122125    5.93834572775365
H         0.40669926863841   -0.34133595829369    5.51701716007523
H         3.64726218532671   -0.21398292747675    3.65861222927266
H         3.22784965204780   -1.45696664773773    2.47960954860650
H         3.51958421022315   -1.90024052418273    4.16244914272284
N        -0.95631207861015    2.65573521569369    1.53924381943859
C        -3.01097321951212    0.16131917866437    3.24425341217244
C        -0.59452817589386    3.76142518709959    2.42044721599797
C         0.07127772927807    2.48051184955912    0.52149246446758
C        -2.22508627525895    2.92206546685853    0.87781545027866
C        -3.57740382073514   -0.93005310123754    2.33042629644285
H        -3.62161812577967    1.05636798466724    3.09217558589867
H        -3.20745303647454   -0.14910423595083    4.27578970505987
H        -0.75449526515434    4.72923494562773    1.91446569179773
H         0.46897665870237    3.67683778429084    2.64619844112907
H        -0.19777367203091    1.64367001292747   -0.11972803446257
H         1.02359912491258    2.25575845750556    0.99402001656799
H         0.18507495898943    3.37917709592517   -0.10222578031577
H        -3.02823716499481    2.97638752635477    1.60688582578347
H        -2.44711782869773    2.10992759400231    0.19113441611128
H        -2.19559936974180    3.86521623410485    0.31140131225126
C        -2.84413381782896   -2.25269208016416    2.55191822558858
C        -3.43231848386062   -0.53130511343987    0.86126225862451
C        -5.06959407247042   -1.13891375424429    2.63637891217332
H        -1.80435267050602   -2.15724021526791    2.24776302273756
H        -3.30272465664368   -3.04983673676963    1.96857090371813
H        -2.87505783748288   -2.53699753899870    3.60156372252870
H        -4.00860595954539    0.36735270900713    0.65126459643283
H        -3.79192434574017   -1.32622440707950    0.20945874388202
H        -2.38409650141656   -0.34133666761408    0.63078871791513
H        -5.62466157188451   -0.21398122798458    2.48918913846810
H        -5.20525133208382   -1.45696436602490    3.66819324774731
H        -5.49698388970853   -1.90023926443067    1.98535360473557

