82
CSD_code = LAJNAN | q = 0 | S = 0 | Stoichiometry = C35H40CuN3O3 | MND = 3
Cu       -0.05895746220652    3.96265343653067    4.14803821108991
N         0.27749660487682    4.60170220988470    6.99931978836550
N         0.17038658257896    6.35635117986226    5.77848826869534
N        -1.11535612669596    3.10185155149190    2.72853425073733
O         1.51324282120330    3.30030532382656    3.12978318003135
O         1.97355140733344    2.09118513105562    1.30734318068086
O        -0.88873368168778    1.92735294300236    0.86380004124832
C         0.08763158107747    5.01051183125311    5.72735408571259
C         0.47754572968967    5.67321962788995    7.83124752636837
H         0.64695489437880    5.55376918480142    8.88124284506617
C         0.41059613805768    6.78216535099333    7.05934763034438
H         0.52075844526287    7.81847118659197    7.30447813677914
C         0.08219834137107    7.20763887990884    4.64454322368808
C         1.26249021744724    7.66940296306429    4.06016676396263
C         1.15626530652078    8.51877802245259    2.96596460106618
H         2.04937827851731    8.88374025304174    2.48395692550835
C        -0.08001350569948    8.89936484820745    2.48387735401527
H        -0.14487510419238    9.56959463740939    1.63941317702357
C        -1.23755296757381    8.41711993158106    3.06721427090661
H        -2.19250297073451    8.71814077437639    2.66815738475131
C        -1.17893025429562    7.54944943018232    4.14781307885476
C        -2.42770257418949    6.99926454915324    4.79909154892572
H        -2.18643871558776    6.00807919044088    5.19871528849888
C        -2.85257177373408    7.90890028376830    5.95697293627563
H        -2.06993670337866    7.97380143981202    6.70917764438895
H        -3.75160147296635    7.51988006232333    6.42982975532992
H        -3.06081097372825    8.91199134019569    5.59053155992939
C        -3.58265651043607    6.82593861110523    3.81411403485839
H        -3.98931255296366    7.78574820972465    3.50543647649832
H        -4.38544548818387    6.26451471710313    4.28739559689096
H        -3.25221700410052    6.28196556411874    2.93267460274769
C         2.61767133638661    7.22794767049997    4.55874804525369
H         2.50024024654906    6.71304760688650    5.51671531360818
C         3.22610673336951    6.23338381576597    3.56630295716194
H         2.59639283058043    5.35164888757916    3.46868749038967
H         4.20687464032121    5.91577604385278    3.91245780246058
H         3.33704793342651    6.68862877300728    2.58506794844111
C         3.55311433504428    8.41744881917450    4.78785097919503
H         3.81765460348764    8.89844498685470    3.85029705162074
H         4.47131155224770    8.07734394590317    5.26142748443342
H         3.08457860160337    9.15717092586486    5.43463618252368
C         0.32509533250529    3.23873543551714    7.39846436019628
C         1.55997938299256    2.58878039908401    7.42759163048292
C         1.57813336883750    1.24745662918743    7.78804232112471
H         2.51541279124088    0.71394955092167    7.81016039124873
C         0.41047293796748    0.58298803257602    8.10746514341607
H         0.44299762452599   -0.46251174423836    8.37639422373911
C        -0.80084559507033    1.24847628032874    8.08316753170834
H        -1.70400919822378    0.71461115920718    8.33294965030928
C        -0.86485514791212    2.58984433630048    7.73421055726695
C        -2.18662526849988    3.31875997735440    7.67321034407686
H        -1.99435085357606    4.39643815620823    7.65990415039815
C        -3.07288024048507    3.02345235991026    8.88399448782492
H        -3.42826005316972    1.99692426092232    8.87341936211064
H        -3.94116557820165    3.67865809144516    8.87340096106136
H        -2.52579174620206    3.19072230386277    9.80921080991859
C        -2.89948697539045    2.95109543582894    6.36952151823828
H        -2.25924859343581    3.19067464149024    5.51925064325947
H        -3.83309279255793    3.50318662899053    6.28326489709969
H        -3.12156494511006    1.88699307244589    6.34424214784419
C         2.84316119227694    3.30224379491088    7.07660772171923
H         2.62926453429037    4.35828989370518    6.88851549968133
C         3.44748478399014    2.71920027207443    5.79818622243357
H         3.65972022597324    1.65960188851103    5.91537706108720
H         4.37680457880252    3.23207231828103    5.56148065745630
H         2.76569112817602    2.84646649306959    4.96066186904705
C         3.83717360446403    3.22926486239216    8.23941810977547
H         3.38834579184955    3.61282620654019    9.15420055713488
H         4.71797514860048    3.82502928366059    8.01106289011386
H         4.15705493963099    2.20623874423885    8.41796178251394
C         1.23099747559539    2.63216088956999    2.09743072669636
C        -0.29261381196842    2.54119880225206    1.88130835017744
C        -2.37747475853697    2.85274199596383    2.24869555047527
C        -2.21797725363995    2.10548477774386    1.06520969468858
C        -3.29755987734078    1.67715551984952    0.31241729062193
H        -3.15907847756966    1.10426957229322   -0.58961727182168
C        -4.54979011745615    2.02449483958994    0.78188610773654
H        -5.42304956417330    1.71316287626581    0.22943769723359
C        -4.71748134047962    2.76772332679457    1.95198052300094
H        -5.71848007760256    3.01331701997700    2.27310829169341
C        -3.64350605043106    3.19422940996458    2.70559635234500
H        -3.76714984364428    3.76659806444865    3.60899456055459

