101
CSD_code = LAJTEX | q = 1 | S = 0 | Stoichiometry = C52H44AuP4(1+) | MND = 4
Au        8.18428445661984    1.19892146907176   12.68199328583922
P         7.91242896710252   -0.96943375519480   11.65953525943317
P         5.89962592662409    1.07179262647457   13.29378122744441
P         9.77573128063055    1.83539297235530   14.31468629159409
P         9.21252843456275    2.82200432434089   11.21818861721691
C         6.40533099790882   -1.52526902062883   12.48766178031253
C         5.58908778668130   -0.69937564421258   13.14396045590783
C        10.08062997140846    3.83905844977680   12.43373398310353
C        10.31309451985310    3.43825613735884   13.68458504483172
C         8.95991519174631   -2.43826756311766   11.76477243120322
C         9.77246289427944   -2.82304373618441   10.70177068650207
C        10.66562781663579   -3.86508394712341   10.87001379902462
C        10.76721004872045   -4.50651795627043   12.09489064280759
C         9.97801416138279   -4.10470543736314   13.16179355167932
C         9.08179416772799   -3.06520984974812   13.00345339203100
C         7.32427415687250   -0.93040830700188    9.94487605553106
C         7.32629014493167    0.28371234169359    9.27017784504622
C         6.83898780430484    0.35807045235237    7.97880057360456
C         6.35153339717352   -0.78174221231168    7.36101679897652
C         6.35416082279374   -1.99620372696091    8.03156238335206
C         6.83479608927630   -2.07749377321069    9.32432140076147
C         5.38508844824374    1.40448930953081   14.98969525560401
C         5.91929340958528    0.58935022259413   15.98634796874979
C         5.65571834674085    0.86502493041302   17.31320590185089
C         4.87880198816463    1.96305531616005   17.64922019903699
C         4.37505778229009    2.79245550599400   16.65993624109502
C         4.63362410266342    2.52513711530385   15.32795561468744
C         4.62057290901858    1.75753596903034   12.21364918798093
C         5.04258165928968    2.52531238363503   11.13410611517292
C         4.11300610991634    3.05747221739154   10.26031002231834
C         2.76376939972589    2.82080180046376   10.46667671661623
C         2.34225860487728    2.05655886328776   11.54553442669147
C         3.26462238381140    1.51912863715656   12.42300034198694
C         9.26795502309143    2.24005776246112   15.99700923956726
C         8.37984237770852    3.30298745650352   16.15425890072498
C         7.86669834608722    3.58960126380340   17.40352762599011
C         8.22037783057885    2.80657635946628   18.49170407320403
C         9.07761420897763    1.72986934677427   18.32947269207970
C         9.59664630066124    1.43416177388023   17.08221533122409
C        11.34595779434742    0.94675612723730   14.44504261454460
C        11.48005727793259   -0.22533112596081   13.70955858978320
C        12.66371229236406   -0.93782560094570   13.75664521500591
C        13.71108013942848   -0.47709844506693   14.53751640164459
C        13.57698183089956    0.69227349254444   15.27256959819509
C        12.39786466327458    1.41151772217109   15.23047819884356
C         8.45631997427812    4.07383838732233   10.15627697881433
C         7.75882082400472    5.11390588768957   10.76753225033707
C         7.05250547597292    6.01483969519024    9.99401703241289
C         7.02239031542891    5.86886126893544    8.61554067343850
C         7.69335505459935    4.81801006421443    8.00931435127469
C         8.40250620866993    3.91079127984060    8.77475095475421
C        10.62812036018770    2.19879724437199   10.27186741718959
C        10.84713503224025    0.82801599778798   10.22516057725674
C        11.94517678710807    0.32633889111422    9.55164793514897
C        12.82311444426256    1.19448850768652    8.92382306864796
C        12.60224728349437    2.56346370150940    8.96469554740700
C        11.50961794120819    3.07275175305070    9.63949080918304
H         6.18870198183007   -2.58830365934899   12.41298310776063
H         4.68340062772783   -1.06282750856580   13.62389894424066
H        10.41859882305860    4.81127010577234   12.08300059886954
H        10.84640527295424    4.07028269246354   14.39079788088745
H         9.68857186996324   -2.31644418255123    9.74886387515256
H        11.28669249753885   -4.17798622493964   10.04375070332297
H        11.46733483860022   -5.31840974893460   12.22040615454134
H        10.06531852305041   -4.60013518878305   14.11720031492040
H         8.47049460816245   -2.73001063274893   13.83297048453551
H         7.72063897408927    1.16822758425949    9.76176848789108
H         6.83943387339778    1.30332648915081    7.45657360609852
H         5.97106375500534   -0.72672153351058    6.35242188235961
H         5.97696223739590   -2.88242569715351    7.54367175667333
H         6.84243914536121   -3.02322835067404    9.84904222638284
H         6.53726183381157   -0.25595378556844   15.70758330267849
H         6.05797392461617    0.22814633541899   18.08669667332822
H         4.67048298036895    2.17591574977314   18.68661288558675
H         3.77878949442116    3.65205112462991   16.92758336690377
H         4.24895133834063    3.17105964881894   14.54985506325600
H         6.10183970346120    2.70796619887322   10.99421094370238
H         4.44230516875519    3.65776711306165    9.42504981531918
H         2.03461556926182    3.23503575088324    9.78704740613884
H         1.28860468603899    1.87978177994345   11.70157102753294
H         2.94121334385780    0.93110892322428   13.27099137079032
H         8.10157190351589    3.89581671315408   15.29094265788838
H         7.18879175535201    4.42030312456088   17.53059572874198
H         7.82203010575781    3.03387400348035   19.46871845276748
H         9.34272343106297    1.11754517184753   19.17856404309605
H        10.26197443439332    0.59182079403057   16.94626979782378
H        10.64632772376150   -0.57595097469616   13.11212904636194
H        12.76436503686666   -1.85107427344690   13.18893826645222
H        14.63632692280581   -1.03153408987576   14.57832009528380
H        14.39647196632334    1.04260393861014   15.88201929301949
H        12.28394824854341    2.31807862000729   15.80896084648221
H         7.77708945716147    5.20593048129711   11.84702158437951
H         6.52111936700601    6.82849053749588   10.46457429052884
H         6.46920090622145    6.57292055042891    8.01274697053661
H         7.66144392644533    4.70501474010676    6.93576885852096
H         8.92861900403166    3.08754016385738    8.30874586379819
H        10.14656462824134    0.15705426945651   10.71365775223776
H        12.11582298775861   -0.73947880981153    9.51805978903214
H        13.68152333877786    0.80535681444589    8.39767172604291
H        13.28699995077589    3.23554716365202    8.46950311339524
H        11.33018786567715    4.13892315129012    9.66871037009234

