83
CSD_code = LAJTEW | q = 0 | S = 0 | Stoichiometry = C43H34INP2PdS | MND = 4
Pd        3.80765382271534    0.73574455792924    3.52298264822695
I         5.21016794740693   -0.63094363535328    5.29517501975161
P         2.59987715157187    1.86788783041294    5.08421020788599
P         4.85375655246829   -0.17563717123182    1.71984379208336
S         1.36234206285414   -1.58775122036870    3.28483333133413
N         1.26907266623196    0.71758686343422    1.83357496607197
C         3.14205648081168    2.14172585752726    2.22551136547608
C         1.92894476964656    1.89300318412216    1.56324835431244
C         1.39905927616152    2.80121176055904    0.65609147564350
H         0.46408731494389    2.57320368412681    0.16781492815756
C         2.08187312225892    3.97508232601045    0.39967405271147
H         1.67885690893175    4.68817957918458   -0.30426192860942
C         3.27982435893402    4.23774864421242    1.04334061709043
H         3.81338719071362    5.15606389514452    0.84268549580055
C         3.80516134405758    3.32606648520322    1.95058691487540
H         4.74681260650452    3.55570247484898    2.44275185828484
C         1.57008047907861   -0.19184358666563    2.58366981316675
C         0.93275415338212    2.40203214462526    4.58449201087049
C         0.76764057533248    3.55884031005690    3.82618065864291
H         1.62247982711674    4.18159047086858    3.59739510695662
C        -0.48547390690452    3.91148372792575    3.36287827207612
H        -0.60364527321784    4.81246287462235    2.77874265604282
C        -1.58048070798835    3.10811971506009    3.63550128857486
H        -2.55737860257292    3.38238207931030    3.26573290988472
C        -1.42006986634971    1.95111408604782    4.37939293525573
H        -2.27024868875714    1.31905161054599    4.58959763013726
C        -0.17019564164729    1.59655382746581    4.85261105342216
H        -0.04954319391912    0.69120399679606    5.43218468866480
C         3.45518082737655    3.41023493276275    5.50524429247198
C         2.81194411546267    4.52448649128879    6.03703367247127
H         1.74221479016274    4.50610063788198    6.19777754710033
C         3.54502507327314    5.65463229008117    6.34926282979039
H         3.04504204646037    6.52008890329825    6.75945519095717
C         4.91539350528554    5.68052498083311    6.14066619470325
H         5.47967939495131    6.56799622958461    6.38639708309784
C         5.56077557176567    4.57108782149270    5.62038870663372
H         6.62947943038097    4.58805124050992    5.46487215997580
C         4.83130594741406    3.44020036412820    5.30364106955713
H         5.32871613768138    2.55615315329254    4.90654352510504
C         2.27692471358406    1.07941260628939    6.69231114960659
C         1.96491713230003   -0.27785304806558    6.68960586129200
H         1.96698511341180   -0.82866305206663    5.75584664983605
C         1.68503604024468   -0.92954492933199    7.87472231697269
H         1.45051891745127   -1.98327388928960    7.86537886724867
C         1.72319980600294   -0.23169183086168    9.07057127658015
H         1.51361059159246   -0.74066345474140    9.99960445709889
C         2.04523387254375    1.11501182045341    9.07781289735522
H         2.08805242201463    1.65645888505964   10.01163748322201
C         2.32301338537537    1.77497634441931    7.89393998253966
H         2.58804460923877    2.82247961952404    7.90982071842569
C         3.87660708607276   -0.28064742223597    0.18743871648585
C         3.16451832525667   -1.43856669196999   -0.11146656114174
H         3.25843816932261   -2.30939418831612    0.52324878107242
C         2.33676629824082   -1.47815204961170   -1.21830206799944
H         1.78559166298930   -2.37976066433549   -1.44145548797487
C         2.21068199477447   -0.36594694640658   -2.03366062716278
H         1.56166099546813   -0.39838341932327   -2.89621399139431
C         2.91536748611507    0.78971826569280   -1.73939173357744
H         2.81742051237978    1.66197254488226   -2.36906748504647
C         3.73876242533525    0.83831966790161   -0.63078484711421
H         4.27572780148344    1.74820487671728   -0.39687385020950
C         6.28018553088245    0.85008232562799    1.27183204342367
C         6.84010135849296    1.62216207297486    2.28465588743077
H         6.40599115291440    1.58300196098927    3.28313225753994
C         7.94342504713699    2.41572339945332    2.03125198313314
H         8.37623150735789    3.01110292227510    2.82175262760798
C         8.49297910658134    2.44108081223056    0.76017975909262
H         9.35363682672041    3.06074177157800    0.55601109668355
C         7.94324496387138    1.66900619793691   -0.25165372860629
H         8.37758273055005    1.68676653107996   -1.24075859784044
C         6.84143445602312    0.87159723568899   -0.00196005807299
H         6.41116081512519    0.27171683094576   -0.79287432768780
C         5.53423194295493   -1.85840835286814    1.84936326848413
C         6.75725173060002   -2.21960887304266    1.29841643469911
H         7.36704260017229   -1.48538084770607    0.79156671483419
C         7.20249977254426   -3.52423414972535    1.41670428549463
H         8.15687582609092   -3.80131897888360    0.99319346208162
C         6.43743633273054   -4.46836142192230    2.08057491259715
H         6.79525985682757   -5.48287520769180    2.17413572247780
C         5.22171297984869   -4.10870254871306    2.63845776039258
H         4.62930632397730   -4.83716646724108    3.17123348431627
C         4.77280453054990   -2.80731495637225    2.52718195281290
H         3.83671567662230   -2.51564671871493    2.98965615834542

