101
CSD_code = LAJTAT | q = 1 | S = 0 | Stoichiometry = C52H44AuP4(1+) | MND = 4
Au        7.85745488171557    0.57309333725970   13.02726814473171
P         7.56138551435078   -1.58706198495426   11.99300484948711
P         5.57310318272455    0.47960299962489   13.63643535917869
P         9.46037506130488    1.15192127505047   14.67455276020791
P         8.91680132666466    2.18665986180190   11.58509970140120
C         6.03094268289473   -2.11642279762513   12.79577970152027
C         5.22607894226854   -1.28192515752401   13.45477500479210
C        10.04723733893654    2.74128212534589   14.05242322756395
C         9.82210461742959    3.16249052198999   12.80718587202471
C         8.57760424267646   -3.07672648383275   12.11183956974731
C         9.40705778741456   -3.46720491893233   11.06407852881890
C        10.27268045794267   -4.53070872909537   11.24102512319650
C        10.32999208505625   -5.18849018663610   12.46007841416636
C         9.52498032098540   -4.78082800207749   13.51270686177727
C         8.65637023750591   -3.71941731201205   13.34572159593555
C         6.99934577046921   -1.54086600548882   10.26980530341380
C         7.01860664154311   -0.32606431388366    9.59661779956184
C         6.55609283419665   -0.24951016596345    8.29622009543806
C         6.07549040640825   -1.38694489572463    7.66871211952203
C         6.05863716417613   -2.60140886657901    8.33894636578388
C         6.51500389310393   -2.68517702357271    9.64018656723798
C         5.07751317360012    0.79004116797996   15.34209106004723
C         5.60293177506335   -0.05457822251783   16.31863706864464
C         5.35666042115760    0.20154235911656   17.65267344483562
C         4.60589999353464    1.30898811340634   18.01597704378714
C         4.11062164850528    2.16669184251151   17.04682834575276
C         4.35214161493987    1.91916940345211   15.70781669232376
C         4.29897191607404    1.20868002292234   12.57926080538930
C         4.72678850708780    1.97793875435127   11.50306862088479
C         3.79977732262322    2.54465107988927   10.64842625844003
C         2.44766255737774    2.33978495662723   10.86960782435733
C         2.02057135552733    1.57218615015269   11.94389487509998
C         2.94016779012832    1.00143456194986   12.80297807788674
C         8.95056088429276    1.57182726848339   16.35280714190921
C         8.08920491760369    2.65766931340758   16.50102377114515
C         7.57663610105135    2.96246022718548   17.74613987426864
C         7.90398090278003    2.17501688654159   18.83924118553936
C         8.73368944179569    1.07583359852417   18.68581921822884
C         9.25198536166011    0.76188477009507   17.44270039845840
C        11.00849995093760    0.22657479702193   14.81771227674388
C        11.12230211960416   -0.94634961062992   14.08012197788623
C        12.28999060852961   -1.68440148516026   14.13319642258338
C        13.34207663298189   -1.24797289326077   14.92164404298281
C        13.22803884942166   -0.07812546328319   15.65928712376240
C        12.06480510071026    0.66617160401576   15.61170492524605
C         8.16593312915843    3.46996198808909   10.55863825091387
C         7.49657987771728    4.51126336401742   11.19868073305970
C         6.78837280247890    5.43346325277164   10.45239200880742
C         6.72822889704857    5.30791183674067    9.07291720017648
C         7.37190961060999    4.25686304107710    8.43812351934089
C         8.08269575053425    3.32852923307194    9.17609985717314
C        10.30778292819284    1.55445953806887   10.60952927195072
C        10.51912420026389    0.18222427271258   10.56789077443556
C        11.59746097426086   -0.32967453872518    9.87089106506376
C        12.46285157514775    0.52966473192635    9.21423357218964
C        12.25055218074024    1.90005889304170    9.25190526487911
C        11.17822597466044    2.41983172508916    9.95090068845735
H         5.78919363174352   -3.17236503921228   12.69989006681270
H         4.30492670251765   -1.63109814573238   13.91555888535832
H        10.19341311888975    4.12487171395956   12.46286573552489
H        10.60758490855806    3.34697088660913   14.76083997232820
H         9.35691196987781   -2.94791864478856   10.11565811671961
H        10.90606922384834   -4.84830240747309   10.42603166128925
H        11.00744727182272   -6.01837000821564   12.59204511577166
H         9.57876678604007   -5.28844009763566   14.46413546043778
H         8.03353471773746   -3.37950823167464   14.16457677082946
H         7.40554143197869    0.55676432907555   10.09714225913972
H         6.56977498893376    0.69562840185220    7.77398600510403
H         5.71442674603903   -1.32990499953585    6.65311039076985
H         5.68580960813307   -3.48567221941096    7.84421235599423
H         6.50965942525735   -3.63127969787463   10.16423602184505
H         6.20031826783264   -0.90731779781735   16.01850556989018
H         5.75193435575265   -0.45803132378115   18.41053137350095
H         4.41105543777228    1.50661012273293   19.05896762724067
H         3.53442874824986    3.03305086705599   17.33574461530208
H         3.97433736046688    2.58741811858167   14.94539999591946
H         5.78854350016699    2.13418878582629   11.35066601931940
H         4.13332474238847    3.14693991404926    9.81630861997426
H         1.72067796023444    2.78184018855415   10.20537880651026
H         0.96487164290098    1.41989489412514   12.11132584754162
H         2.61306823159804    0.41061565136501   13.64763089893887
H         7.83178866176288    3.25424947038042   15.63388724637604
H         6.91979268569075    3.81085384323117   17.86615568703693
H         7.50633274536536    2.41652869584745   19.81310515090341
H         8.97776416821931    0.46013800079734   19.53869116871940
H         9.89605822600444   -0.09780621121581   17.31376892368870
H        10.28541657179115   -1.27711318455550   13.47579986190543
H        12.37477618215801   -2.59828783577726   13.56393136603664
H        14.25519843898119   -1.82183169120806   14.96644327978846
H        14.05098879499766    0.25323903710248   16.27465830229367
H        11.96664678134464    1.57312874732988   16.19242179868072
H         7.53772239427016    4.58721294592212   12.27875161544349
H         6.27837958550758    6.24772044735577   10.94500868064043
H         6.17388764830026    6.02884303753189    8.49148866500071
H         7.31783360497310    4.16055316307537    7.36384883271327
H         8.58674967592896    2.50426548941859    8.68808016477757
H         9.82794154010811   -0.48112043934754   11.07953254744065
H        11.76249843152273   -1.39646609345382    9.84087059104652
H        13.30512524959028    0.13238995774469    8.66853131745919
H        12.92617733617534    2.56516581095720    8.73533951859287
H        11.00555826100284    3.48718173038291    9.97841344128321

