60
CSD_code = LAJWEY | q = 0 | S = 0 | Stoichiometry = C17H37ClIrOP3 | MND = 6
Ir        3.03018813846938    2.14048968738835    2.14206509736268
P         0.74930298825161    2.61261928294952    1.99426290678282
C        -0.21839870387262    2.44087429865078    3.54480308714602
C        -0.36472528657872    1.79014737458322    0.78474576529768
C         0.41844207071070    4.36821715561888    1.62969342872468
P         2.84221149896509    0.19313139088989    3.37749923003969
C         2.68507127076715    0.31010397762704    5.19508153353258
C         1.45428546065638   -0.93712390403461    2.95858980137569
C         4.20634938098387   -1.02565292073426    3.19874649386951
P         5.30105509283450    2.53098108287717    2.50371376558009
C         6.53545495155703    1.70309969282636    1.42389511263983
C         5.79068093391384    4.27436658159646    2.30542604032435
C         5.98783185828375    2.21273513827006    4.17708937376461
Cl        2.88674922151255    3.49744945076110    4.13018095556745
O         3.29422648473155    3.91923115098184    1.07532676998346
C         3.07931147373829    4.22385420348657   -0.17854295979941
C         3.40970512297057    5.52831877520938   -0.59496992297294
C         3.18481714845601    5.95188524326084   -1.88931527772516
C         3.52885529845097    7.35435145777402   -2.30333732430853
C         2.62043597931810    5.07596999802690   -2.80930646619853
C         2.29031092587583    3.78132758892498   -2.43411830358584
C         1.66585757748596    2.84416717340790   -3.42916729473619
C         2.51995263586583    3.36648973646035   -1.13487821525779
H         3.18281697380464    1.28330850008499    0.88623187604276
H        -1.22038254381353    2.84214041567915    3.39705840673374
H        -0.28931239539570    1.40132116813281    3.85550469335640
H         0.29314820983457    3.00762179555396    4.32042770899906
H        -1.38420228281756    2.15324031503060    0.90745174058296
H        -0.01915433525771    2.01969013358938   -0.22002127039819
H        -0.34162011580675    0.71199897413739    0.92419984589252
H        -0.64356898809400    4.57793397804868    1.76194901049671
H         1.00707673579010    4.97535539823781    2.31494818075879
H         0.72168325422428    4.59891613381566    0.61015274035056
H         2.60465835151036   -0.67979695146887    5.64319115814410
H         3.55321331111871    0.83378611437653    5.58880757883474
H         1.80635011376443    0.90542202611101    5.43278128025407
H         1.50623467569392   -1.83969076158858    3.56676336986727
H         0.49772304676707   -0.44763162927704    3.12002873194130
H         1.53861780502650   -1.19937317840094    1.90575234063797
H         4.00604093221086   -1.90955346399127    3.80364792075725
H         4.27178118996329   -1.30567572989269    2.14919575199151
H         5.15420757698067   -0.58809894165929    3.49963363322167
H         7.54303347694501    2.04225473343091    1.66059403143311
H         6.47345197519794    0.62382705155772    1.54129516255623
H         6.29872382677432    1.95222094232526    0.39155462579493
H         6.82231673282379    4.40290949810107    2.63515045558923
H         5.68589599574647    4.56377341029536    1.26277131128044
H         5.12404403940308    4.88866355378221    2.90668197188729
H         7.03032975053527    2.52741001629256    4.20926224620748
H         5.40760442508067    2.79512244497343    4.89032616768537
H         5.92252140626071    1.16077452617893    4.44326308271267
H         3.83716909116677    6.20138961501884    0.13519459587456
H         4.03979091937084    7.35648082641052   -3.26501869995926
H         2.62044091996870    7.94919412645794   -2.40678389622277
H         4.16773982305822    7.83292445892457   -1.56472791358341
H         2.44208393341820    5.40472123717793   -3.82362063027996
H         2.15091929971285    2.93404633383984   -4.39945871865342
H         1.74328283975827    1.81270577855734   -3.09225561898395
H         0.60938511667890    3.08341792963118   -3.56183926941946
H         2.28298338923752    2.35451560372911   -0.83687719980211

