41
CSD_code = LAKDUW | q = 0 | S = 0 | Stoichiometry = C16H18MoN2O2S2 | MND = 6
Mo       -0.37631848997827   -0.44323482200346    4.88622758030323
S         0.15642467426838    1.12767004933892    6.71683842648916
S        -0.05721723947507   -1.24794500046505    2.57191956693024
O        -1.96844939573234   -0.07230444613718    4.78934760398649
O         0.06761320454980   -1.83466896683299    5.62705069226412
N         1.91361701558967   -0.03651372412006    4.71969182207616
N        -0.04871495160356    1.46907868239773    3.59291164431156
C         2.30190041404628    1.30061559726435    4.22170822701339
C         3.75738354778125    1.31128089783464    3.76225522640292
C         1.32655718198225    1.68721055903201    3.09572722699508
C         1.51661469099587    3.12749389023063    2.62757741526456
C         1.65995888288633    0.29091104624908    7.10608804599805
C         2.39386870799858   -0.26655784563533    6.05613429995673
C         3.54214140433409   -0.99103026893577    6.32215780739581
C         3.97628951218563   -1.14225909774590    7.63123568441221
C         3.27226261935596   -0.55248984132807    8.66664331033553
C         2.11544597578942    0.16365687946283    8.40978249987735
C        -1.04734445664737    0.05054982410507    1.90310152302597
C        -0.98656923996693    1.30516163001611    2.51478377620954
C        -1.79886799157671    2.33286367129213    2.06989943819543
C        -2.65652614859739    2.12189952903528    0.99985538519866
C        -2.68343609190880    0.89173238172513    0.36636330405759
C        -1.88207825505124   -0.14541438820572    0.81321795604215
H         2.31804943962185   -0.74565835028525    4.10072620847628
H        -0.32821859675435    2.28364046879782    4.14784911930587
H         2.17700791518562    2.00794848800827    5.05518291308417
H         4.07762718653626    2.31771743674354    3.51076465428099
H         4.39816715259020    0.94804429308836    4.56298745030190
H         3.88784543811909    0.67498742217274    2.88821170020076
H         1.47893162816467    1.00438205859658    2.24657826323894
H         2.48353353552215    3.25623263025037    2.15094709808433
H         0.74945271063935    3.38107552065762    1.89891517712784
H         1.44751145362045    3.81601580435412    3.46839215678769
H         4.08449981972138   -1.45963539837617    5.51231066755831
H         4.86363286324988   -1.72076125022028    7.83613752910680
H         3.61384597177785   -0.66486312906724    9.68406965900304
H         1.54182351323167    0.60400685860210    9.21001688383970
H        -1.78310796757165    3.28990224155888    2.57336236509187
H        -3.30052776148676    2.92066087702983    0.66620262996350
H        -3.34580764379746    0.73018305536201   -0.47009512247468
H        -1.91462222959574   -1.11728526385010    0.34662218428155

