62
CSD_code = LAKKAL | q = 0 | S = 0 | Stoichiometry = C21H32BrN4O3Re | MND = 6
Re        1.88149452790548    5.33527436802387    2.03619187820432
Br        1.26586432775741    5.55613743400241    4.67118237795577
O         3.04804246367086    5.53849703286946   -0.81568227140093
O         1.50095588738822    8.40897090537754    1.95680756338335
O         4.61130790402242    5.70542376254782    3.45674105876225
N         3.04927274378463    2.31272562820266    1.86948459896963
N         1.16351266916404    2.25115288251454    2.90096584932258
N        -0.57118512221438    4.10565827470139    0.31094146630119
N        -1.35899712903105    5.50205578658056    1.74483981886237
C         2.58533012408319    5.41327955983706    0.23982185109435
C         1.63129849369923    7.26825918243926    1.96479431878894
C         3.62662387211299    5.56892650673142    2.88610182113650
C         2.03567351292956    3.10153479157653    2.30612525519910
C         2.80981100384994    1.00380011344080    2.18556412784984
C         1.62785154467149    0.96583697756950    2.83474886043279
C         4.26882241288646    2.72140414897454    1.19293596428459
C         4.35796549585589    2.06573704440350   -0.18351380790451
C         5.48244142300082    2.39505597904814    2.06081544322384
C        -0.05800412373013    2.57408618499103    3.62166861526184
C         0.11248663231924    2.23425028902063    5.10033649836892
C        -1.26399993714239    1.85148501322181    3.02665257851769
C        -0.20202059104243    4.95940148729614    1.30260338674613
C        -1.93079920555168    4.12464531079991    0.14876865832259
C        -2.42381359941176    4.99721014653802    1.05240609671617
C         0.29742264452879    3.37255205600656   -0.59442427729090
C         0.22000171968823    3.99635791264867   -1.98756361685382
C        -0.04392976708000    1.88433807830830   -0.62821542072948
C        -1.52382517589181    6.54608170931731    2.74467344539953
C        -2.37148864508130    6.04595694657054    3.90970934599468
C        -2.11747270084516    7.79237861515490    2.09333218331461
H         3.48290049703849    0.21126618643791    1.93544602610952
H         1.09767574653823    0.13478477476337    3.24987998472171
H         4.21877733892942    3.80745628531307    1.05985896528545
H         3.47677597756448    2.30429626963462   -0.77487413560383
H         4.44533414229638    0.98454910799955   -0.10347633036178
H         5.23123619372250    2.44360623225860   -0.70702224751244
H         5.37697055223752    2.85413075667983    3.04104831069148
H         6.38056063192098    2.78892649399874    1.59379249684844
H         5.60175856439417    1.32146634453986    2.18887555820598
H        -0.21238167864425    3.65095151945977    3.53068302891582
H         0.96680105994790    2.76610976246091    5.50982046525554
H         0.25103058529312    1.16555712925257    5.24830031847489
H        -0.76900374625156    2.55162126864605    5.64964702028327
H        -1.40554056596977    2.11341733217239    1.98121416475495
H        -2.15659972777278    2.14506761942352    3.57282639415866
H        -1.15961022626660    0.77133514491522    3.10504579611410
H        -2.43884669533390    3.53109170702969   -0.58208814047080
H        -3.43430781312327    5.28876220143893    1.24605432658863
H         1.31793169180990    3.48718691163520   -0.21698263684120
H         0.46430399498047    5.05459099534640   -1.93544024701010
H        -0.77544393160409    3.88588842598886   -2.41195602590068
H         0.93445643425983    3.51385200453544   -2.64856310229430
H         0.06346694963432    1.43856951555801    0.35752131546436
H         0.63822227002905    1.37677089560992   -1.30528009518107
H        -1.05831771473830    1.71461706895936   -0.98143040101346
H        -0.53127070452858    6.79718067330429    3.12497331891067
H        -1.88042317499715    5.21063233077883    4.40254012251764
H        -3.36187320979066    5.73787467159072    3.58115050441886
H        -2.47879951838530    6.84254678004795    4.63958624115578
H        -1.51524199288510    8.09534198989275    1.23902182704116
H        -2.12286152702344    8.60620843198036    2.81262037331047
H        -3.13872380957574    7.62056903963493    1.75949313473054

