117
CSD_code = LAKREV | q = 0 | S = 0 | Stoichiometry = C46H56Cl2N6O6Zn | MND = 4
Zn       19.57166120863333    2.69521526309178    4.92657139923053
Cl       18.07218086017698    1.72270232558062    6.24516224604989
O        14.54424048075551    3.95964874551809    4.81719793826922
O        15.00110215751449    6.25913699947469    2.23069209482050
O        13.36793036798632    5.83649866608774    4.40132156373074
N        17.31531657143301    4.50220232513676    1.91579406182548
N        18.42691870998813    3.84464936025128    3.68409343209781
N        10.83028368893326    0.50937198898657   -0.16969971285202
C        17.16635346003148    4.17368906029763    4.07005816017030
C        14.18609175972480    5.00950678155409    4.16095949230754
C        16.44557437157281    4.56559117738185    2.97660148758846
C        12.96732607632541    4.47019905195905    1.46567797923194
C        13.92428102847240    3.66306735679073    6.10615249505755
C        14.12459098082744    4.02561515039679    2.09482686147062
C        15.05674225486431    3.58030532686019    7.12253993643093
C        12.42685521061907    2.20427928400723    0.89473669283053
C        18.48541540649659    4.05364073651155    2.38564729955686
C        14.43106220082874    2.66855668135443    2.13872394766026
C        12.11826996576942    3.56591177203123    0.86234742637959
C        13.59042382589689    1.76044181027494    1.52671566377093
C        14.55578270326406    3.14203168540831    8.49957857544642
C        17.00749502321094    4.85827201544672    0.55910608112051
C        11.54712552299867    1.26784235651848    0.30378770256316
C        13.17186507883585    2.33501756303333    5.98108473965983
C        12.66003140443359    1.94779437572457    7.37154110409495
C        13.81475702010371    1.81513044343445    8.35799033387885
C        10.87878387809927    3.26419241983891    5.26365277012570
C        12.07093049146417    2.38131748761201    4.90024353670080
C        15.73686699362447    3.01650977724975    9.45640945371052
C        11.59065417953526    0.97281589550714    4.55083664698258
C        15.04525157028623    5.07951155433911    2.74167283463285
H        16.87899617078529    4.09212024188967    5.09592159428326
H        12.75612627822010    5.52884944348859    1.46465574573362
H        13.23839494007755    4.48111667951924    6.34899059329737
H        15.79572354838272    2.85442420978474    6.77369835765003
H        15.54040193359340    4.55736903435180    7.19962482614639
H        19.35466305301568    3.88146654540208    1.78168813056458
H        15.31520436369563    2.32460479699956    2.65394149350333
H        11.21526459968413    3.90062642704358    0.37465019088127
H        13.81987847362262    0.70564502879087    1.54623997895564
H        13.85888057242288    3.89611783008990    8.88426715958302
H        17.92867141407118    5.07134331552298    0.02108188670040
H        16.47702645845481    4.04397815204702    0.05990525372434
H        16.36800986739321    5.74378473445513    0.56673897622772
H        13.90865470156425    1.58782493220394    5.66591621762484
H        11.96737723038363    2.70910044613876    7.73394536209878
H        12.12388050016693    1.00128490828391    7.30577676627050
H        14.51363371138438    1.05253438232665    8.01026699738358
H        13.42993383088587    1.50260499937214    9.33059277697327
H        11.18875035876190    4.28416524630489    5.47639599047549
H        10.18596221634660    3.29709353039504    4.42559009236320
H        10.34595159261280    2.86887862713677    6.12417997221878
H        12.52929564253694    2.79949414231705    3.99706077360484
H        15.40514222794959    2.65788761343215   10.42778142049479
H        16.46542472264291    2.31662945077113    9.05430452579660
H        16.22213703248429    3.98024909368072    9.59311703522365
H        11.04468680437852    0.53036244077626    5.37976151474493
H        10.92536478165350    1.00672282182375    3.69077619354452
H        12.43098505790109    0.32737432272411    4.30614036863432
Cl       21.06958651041342    1.72403175755513    3.60553041288982
O        24.60220318025435    3.95633293942684    5.04656986172191
O        24.13891955084850    6.25603958416373    7.63174067784190
O        25.77624211137480    5.83415515644141    5.46419857162370
N        21.82446848240970    4.50019561686955    7.94207390953938
N        20.71674657752469    3.84082391653938    6.17204752292389
N        28.30980519467120    0.50974709522487   10.04012518271330
C        21.97837235936888    4.16869962156141    5.78861910686862
C        24.95819631334997    5.00667779628186    5.70340588650907
C        22.69674724225821    4.56181783218260    6.88324595989321
C        26.17149353462476    4.46855730566607    8.40211607455085
C        25.22450408701340    3.66039175958762    3.75865768677275
C        25.01631101760971    4.02300137472590    7.76986094045123
C        24.09359485690957    3.57623587834982    2.74063619405068
C        26.71289898311204    2.20298103811193    8.97350581828501
C        20.65526847510190    4.05156569524321    7.47006988660701
C        24.71125674797158    2.66568121076565    7.72482163262935
C        27.01994000648516    3.56492860437871    9.00729346784198
C        25.55133127699109    1.75819773337925    8.33853326538279
C        24.59679355488676    3.13779954936800    1.36449795744163
C        22.12924778144631    4.85775836526783    9.29905585088127
C        27.59237175985162    1.26720730804566    9.56589373935487
C        25.97846781595074    2.33333368559180    3.88516691962965
C        26.49192921555495    1.94550940222555    2.49547214045718
C        25.33840350169157    1.81141225419367    1.50779704979183
C        28.26994337617664    3.26581746013879    4.60342397363453
C        27.07854699360642    2.38191085603236    4.96681967788426
C        23.41711478730632    3.01136285256707    0.40605954193583
C        27.56030854518140    0.97433108383214    5.31791050290020
C        24.09648260214577    5.07624887661306    7.12069443662469
H        22.26807144896606    4.08552847755437    4.76354178169036
H        26.38158323181775    5.52742649441431    8.40403313920909
H        25.90974896930024    4.47923951838433    3.51672048413553
H        23.35464606365812    2.84991422040165    3.08858541869225
H        23.60919187515266    4.55283934652767    2.66250680504410
H        19.78452968928318    3.88057488492013    8.07221375872215
H        23.82864002466724    2.32107798666467    7.20743096060262
H        27.92133487464960    3.90040280893275    9.49744265142836
H        25.32300055048798    0.70317290081382    8.31810184697427
H        25.29386173559970    3.89211461550889    0.98056148731065
H        21.20695602135139    5.07248239066624    9.83450320021621
H        22.65767083719236    4.04360537008731    9.80064033512675
H        22.76963514685655    5.74263741995818    9.29175453956986
H        25.24239655973630    1.58545469069103    4.20040763517632
H        27.18442360057404    2.70703500937698    2.13324293313751
H        27.02866764440846    0.99941362237768    2.56247818357827
H        24.63957411528263    1.04860542197274    1.85515605495649
H        25.72458102555460    1.49847570225807    0.53586631386058
H        27.95902464014542    4.28534017546958    4.38992292306686
H        28.96234549123849    3.29993549627177    5.44177897825026
H        28.80359903388118    2.87053373282163    3.74339217165780
H        26.61905023612690    2.80041593555225    5.86930099596088
H        23.75019700653507    2.65153586255118   -0.56439833336075
H        22.68774050570599    2.31218757762383    0.80790731258087
H        22.93226379739796    3.97504690176607    0.26752175315949
H        28.10810797783960    0.53212916221116    4.49005931891523
H        28.22430704269540    1.00977008537916    6.17890771216908
H        26.72056795029499    0.32783173966686    5.56184133161875

