72
CSD_code = LAKTAT | q = 1 | S = 0 | Stoichiometry = C34H33ClP3Pt(1+) | MND = 4
Pt        2.30335985058779   16.84787930652181    3.27135651409696
Cl        3.45994161687609   15.95857751641762    1.50044214397332
P         4.15249950948643   17.66082312113436    4.38676403218649
P         1.13834797253919   17.70146214501179    4.98921743137514
P         0.27887335560925   16.67911184851682    2.20984990343260
C         3.54575358390618   18.37169080314886    5.99737677085395
H         3.48393612574562   17.55068770143935    6.72031652255344
H         4.26160855236059   19.11295231288604    6.36430924870369
C         2.15808388454553   18.99197977794860    5.81229766330944
H         2.21026793615594   19.86330518001205    5.15079590569833
H         1.72641242567896   19.29738741336686    6.76984353330377
C        -0.43877501295055   18.39211495503700    4.34029464153563
H        -1.14220592489851   18.61950429009881    5.14652634070603
H        -0.20000644191837   19.31974140012473    3.81039948350244
C        -1.01090039421983   17.33544359412897    3.38915179031819
H        -1.87176245214744   17.71627049074926    2.83338148319376
H        -1.34438935956279   16.46839556680291    3.97122484718004
C         4.59314678359059   19.15358067577086    3.45661779455379
C         3.73665600769654   19.59839683812470    2.45323804591803
H         2.83857046518380   19.02484824989650    2.21493994719813
C         4.03983605255169   20.74484000174741    1.74268807620193
H         3.37936706983037   21.08357326713884    0.95870833398771
C         5.19793544278652   21.44923478626173    2.03171495182253
H         5.43885362419800   22.34056142167320    1.47319890881365
C         6.05409968197731   21.00757481296184    3.02900106116407
H         6.95850882049332   21.55521182600746    3.24574639820162
C         5.75667662651399   19.86126761079004    3.74280303138694
H         6.42801588319595   19.50453821084816    4.51206697995929
C         5.72914734944978   16.85481660396962    4.73776133803174
C         6.38713688220086   16.31658167131130    3.63156462398929
H         5.92734642504447   16.38880705024906    2.65475813195824
C         7.60696289976105   15.68907383892540    3.79346621495376
H         8.11606182124186   15.27341083352703    2.93764609223663
C         8.17209860242494   15.59180035716660    5.05613979168294
H         9.12531624895221   15.10239766154225    5.18402026852329
C         7.51400626850883   16.11684994350913    6.15643403043145
H         7.95474601998820   16.03667973632606    7.13865653348003
C         6.29011034797022   16.74582458105692    6.00596793260798
H         5.78608708008886   17.14910359172263    6.87168662862524
C         0.69725930093081   16.51417452947809    6.27323278764291
C        -0.08631227263466   16.85830411398781    7.37082368172899
H        -0.45519662468503   17.86911059287927    7.48106084282528
C        -0.38593165514389   15.89735146392722    8.31897003705986
H        -0.99315531708544   16.15625875977536    9.17281521518959
C         0.09240769151347   14.60319559355114    8.17501117109311
H        -0.14753163095648   13.85906860593957    8.91858540461315
C         0.87660561606125   14.26090582781068    7.08407342142260
H         1.24778364456390   13.25326944391623    6.97816421942788
C         1.18026654016651   15.21615962256309    6.13201406848111
H         1.79719988302245   14.97523488609760    5.26822174818342
C        -0.32986444769883   15.04447379766500    1.75521057953034
C        -1.50226003407609   14.88822772137114    1.02075136138482
H        -2.05728537553829   15.75836265063984    0.69778378610092
C        -1.93620463640669   13.61600893995056    0.69943455245600
H        -2.84231584081191   13.48619643229985    0.12754648990691
C        -1.20573435964423   12.50772876597368    1.10329426792621
H        -1.54774765520763   11.51788480237946    0.84282132421386
C        -0.03625056440416   12.66467424203610    1.82981357163949
H         0.53371796086568   11.79971438532353    2.13267132505521
C         0.40379056943790   13.93400348605149    2.15819278789509
H         1.32892556713211   14.08103811962201    2.70640707433449
C         0.16730837113531   17.67072995472085    0.70249554871807
C         0.72713376515763   17.11779373297545   -0.44914906074353
H         1.16216745531173   16.12874869173408   -0.40511649281004
C         0.72911335383622   17.83659261745618   -1.62863687757586
H         1.15923462750477   17.40571467596072   -2.51950139837475
C         0.18220955713891   19.11038949755618   -1.66538733445427
H         0.18285105317661   19.67131619277869   -2.58727554217889
C        -0.36205663939190   19.66708320623435   -0.51953940874407
H        -0.78440629624135   20.66034954917535   -0.54861855529650
C        -0.36631761317580   18.95538224724459    0.66734005332272
H        -0.79163562527574   19.40175185673970    1.55481597857639

