133
CSD_code = LAKWIE | q = 0 | S = 0 | Stoichiometry = C54H72N2O4Ti | MND = 6
Ti       17.29136814471873    9.38964641860190    3.36715479349675
O        16.30056159546291    9.14315805058645    4.82793597483478
O        18.26783916209113   10.73522071159174    3.88216971464648
O        17.49745749411886    9.46875209670350    1.62000717275100
O        18.65743937597829    8.16932500165793    3.66711562496330
N        15.70835873558032   11.07160072691512    2.87417031079625
N        16.29659391375419    7.42628755012877    2.61076685747217
C        15.13663802086412    7.04356390520044    2.13136522823456
H        14.28702534254472    7.68877979570222    2.32307570431053
C        14.95405761153259    5.84605883157825    1.42125514647708
H        13.97142438783733    5.59018961269528    1.05574389078116
C        16.02783792651705    5.02463142557349    1.20837286468189
H        15.92531630859320    4.09673266987708    0.66317991180949
C        17.29087227380452    5.39024738726585    1.71849524023189
C        18.45050886095930    4.60908087694875    1.57153853834725
H        18.39145798334618    3.67841941204103    1.02794251742718
C        19.63367734880478    5.03465705774450    2.12268683440922
H        20.52224296438762    4.43020305579950    2.01000871830656
C        19.72284095752918    6.23142319847885    2.83135635297143
H        20.66204280505070    6.54639756810100    3.26121209477681
C        18.61228390551646    7.05418963683919    2.99924568374302
C        17.36632728030321    6.62146663205484    2.42637398388241
C        14.64352823922715   11.07682160800882    3.88407598401073
H        15.07474869426361   11.49771084442111    4.80371369516475
H        13.81560893293057   11.73241889139208    3.55864633157962
C        15.02089853345852    8.81371544578927    4.81953332520415
C        14.11808028992076    9.70672020374552    4.20834144292615
C        12.79182718823060    9.36439736310414    4.00798306190285
H        12.14707856273824   10.08222153034878    3.52449999454365
C        12.30821635374488    8.13433397317052    4.42813285325499
C        13.17440968870640    7.32386164074446    5.15949070568771
H        12.78279069363011    6.40292271206853    5.55605426073755
C        14.50087542337778    7.63627786182243    5.40943754032554
C        16.35278536992143   12.39751703353613    2.86889017816086
H        17.09390890046390   12.40537552990036    2.05857656546538
H        15.59812923099886   13.17454017474302    2.65406668668411
C        18.03904238209712   11.81243836880747    4.61164351944921
C        17.05037407608776   12.71077946961099    4.16452486310867
C        16.77481502919288   13.86544999526370    4.87283919524621
H        16.01201472470781   14.53027167125884    4.49274944760572
C        17.46517648378103   14.17880325886818    6.03672266716732
C        18.44453616866133   13.28875657548735    6.46165285250003
H        18.98947332577247   13.51901437105643    7.35840027419676
C        18.75939742259043   12.11764592405713    5.78625383304981
C        15.11450933692918   10.82007647363291    1.55138938623246
H        14.29060564439496   11.53516570502784    1.37157838184038
H        14.68970325366740    9.80700052893048    1.56126230738307
C        17.33256002514341   10.23898518674049    0.56442203760727
C        16.12106895550911   10.94597601671581    0.43934531677480
C        15.88041129991536   11.75124517470448   -0.65677720100670
H        14.93631679540885   12.27501279963060   -0.71037476031002
C        16.81951090221689   11.88907000847652   -1.67058464737218
C        18.02102846263911   11.20552456525323   -1.52635679359592
H        18.76717269748850   11.31549403632800   -2.29149890044636
C        18.31150575539894   10.38942175043159   -0.44303987867171
C        10.88921639673246    7.65868123038299    4.15485243869299
C        10.95286537356154    6.35932816998201    3.33868977471698
H        11.50824828652845    5.58912677732718    3.86659763377695
H        11.44434496815188    6.53963357823774    2.38451780550788
H         9.94928064745947    5.98621117907374    3.14432675098616
C        10.16550704065590    7.40183826196777    5.48370524436422
H        10.65022605756771    6.61444423798860    6.05352771243322
H         9.13559085766387    7.10275702593907    5.29939937340657
H        10.16053276005104    8.30632185931819    6.08803656728549
C        10.07154095020085    8.68006907888965    3.35907651066435
H        10.53682514498761    8.89253782497353    2.39914817335041
H         9.96014497659744    9.60809900610695    3.91474258815483
H         9.07700662097660    8.28100453391109    3.16930199128014
C        15.35857552054241    6.80519100291432    6.35762434640886
C        14.58893860699445    5.64197723495003    6.99263330534322
H        15.24015976270120    5.12649553123118    7.69585634019907
H        14.27240396628363    4.92058331040651    6.24214105661481
H        13.71888259982993    5.99661170279684    7.54055058660592
C        16.58088037390220    6.22731844572951    5.63549751129866
H        17.17199973394695    5.62896245456953    6.32713887528975
H        17.20922855265265    7.03037887090528    5.25317995330891
H        16.26987939103238    5.58741012615172    4.81004575489014
C        15.83092714364900    7.73738635343587    7.48363551019549
H        16.46488762298932    7.19498735394493    8.18218921991863
H        14.97574613536581    8.13666122158328    8.02639392732430
H        16.39985426739834    8.56540255384048    7.06910108918080
C        17.13793935486989   15.46721919759822    6.77817497828105
C        15.65504486084753   15.45909770498716    7.17577047716806
H        15.01125862922505   15.40552154356490    6.30251418979104
H        15.40776773734414   16.36525037740425    7.72522614903087
H        15.44189597129388   14.60104192481786    7.80959749099258
C        17.96822990212304   15.64820206045902    8.05173093103811
H        17.79290651672988   14.83450425004571    8.75131247125123
H        17.68435767712083   16.57859583815200    8.54000674062190
H        19.02974039492751   15.70078351341741    7.82261099822092
C        17.42006299747846   16.65926783089979    5.85252293150387
H        16.80918059233549   16.61550560669300    4.95531909121812
H        18.46540263041453   16.65960310126369    5.55162953970273
H        17.20702087664939   17.59464820897622    6.36618699120956
C        19.83337887566779   11.15831176703521    6.28835247554217
C        20.58870489348840   11.69801895798293    7.50870017626866
H        19.92466758410453   11.83325693314819    8.35926730705517
H        21.07793988595320   12.64255979106455    7.28162427252751
H        21.35633635323778   10.98301708271539    7.79813949385733
C        19.15828405165392    9.83716387057387    6.68518628490071
H        18.42430004684852   10.01433940286095    7.47041104034680
H        19.90213344888199    9.13547188131979    7.05889458380675
H        18.65893363873917    9.38929394482121    5.82298539093761
C        20.85831614655510   10.89523224130330    5.17553015149824
H        21.66564312459672   10.27161225938049    5.55497299912020
H        21.28161126869501   11.83361859178169    4.82138966057650
H        20.38820998480728   10.38033181598675    4.33891974783576
C        16.50598760707932   12.77486720038413   -2.86766997129907
C        15.25669268096317   12.23320147678633   -3.57705221761112
H        14.39542741452446   12.23261600657544   -2.91492142169840
H        15.42928561455997   11.21228565682018   -3.91092709301311
H        15.01994352684909   12.84595702555414   -4.44462148833158
C        17.64702846822081   12.82217438935602   -3.88728226776523
H        17.85847721379094   11.83190518742405   -4.28346428085564
H        18.55169699528430   13.23032339783017   -3.44318760261954
H        17.36285866816241   13.46326937054914   -4.71965650468045
C        16.24457671717991   14.20706400566334   -2.37988829226643
H        15.39336071344263   14.24601761466984   -1.70609190580387
H        16.03983902692906   14.86138216071051   -3.22491960599992
H        17.11564538418355   14.58734004934917   -1.85065267245054
C        19.64422939960821    9.66087900616240   -0.31308833994738
C        20.62033992647612    9.98967337628792   -1.44840690634541
H        20.22366266372483    9.68442083903024   -2.41402293190260
H        21.55066460710844    9.44925335740177   -1.28504830723351
H        20.84948311112345   11.05252423721744   -1.47455739527909
C        20.31638320718467   10.05765737245991    1.01117819354615
H        19.70017374904120    9.78027514949166    1.86879424700106
H        20.48170525808204   11.13407266736913    1.03724010730181
H        21.27928479071280    9.55772752315216    1.10232217945061
C        19.37939431845556    8.14890740151101   -0.33753060760730
H        18.69027012474402    7.87109468346220    0.45595649291445
H        20.30653033994415    7.59723473024470   -0.19437245216238
H        18.94451602699371    7.85798917448648   -1.29258324663538

