130
CSD_code = LAKWEA | q = 0 | S = 0 | Stoichiometry = C50H73NO5Ti | MND = 6
Ti        3.47753786079727    9.13567301176850    3.69272391786159
O         3.83481135205688    8.65278256060003    1.99761877449207
O         2.58262356151144    7.69522078277155    4.10533028468192
O         3.05441234959674   10.04544944590688    5.16304542483409
O         5.07601725727576    8.46430656844023    4.51979935253849
O         4.47663856171920   10.81746493929824    3.25025379603761
N         1.55552543165146    9.96105649735835    2.92813315217772
C         6.94430914179865    8.43122735420069    5.97900931763070
H         6.48873585108431    7.49398291606163    6.29031809905561
H         7.16451835761967    9.04517011729536    6.84775770157749
H         7.87923115799766    8.21456505811829    5.46438018861083
C         6.00870213205068    9.15188725552218    5.03167445368806
C         6.26461514700207   10.49284521079798    4.74728596668349
H         7.10609287662721   10.96782099819657    5.22752044191588
C         5.48764555751547   11.25061924415061    3.85601626362152
C         5.88917200873283   12.69026391857000    3.61238209158707
H         5.47778228922345   13.02548133898624    2.66259589767083
H         6.96927058561498   12.80450081046664    3.61180815393757
H         5.47627295444184   13.31006224867106    4.40765808302139
C         1.46883028172687    9.83090886838341    1.46648041456120
H         0.59601537007851   10.39543463922463    1.09344416733162
H         1.31094131908060    8.76464354815442    1.24807835075399
C         3.88185709151717    9.52433910193602    1.00570306517045
C         2.71249051664949   10.27032341452845    0.74790849691486
C         2.70115828052919   11.28652151985719   -0.18540721940787
H         1.78187058564948   11.83435151641771   -0.34015218870095
C         3.83909763459928   11.59337983986095   -0.92208533244379
C         4.95281965430560   10.78352893366034   -0.73861498412827
H         5.82304326920931   10.97034118267836   -1.34081858562544
C         5.00591660371136    9.74120458575799    0.17761529259193
C         0.40264663709261    9.25326145079872    3.51729098098194
H         0.43214361370260    9.40357175002136    4.60438878356914
H        -0.53256220156803    9.69689884432014    3.13400007872521
C         1.56393118653422    7.04181613394124    3.58790888558805
C         0.41596737327200    7.77435964755508    3.23067982758074
C        -0.68492093828202    7.14010898273470    2.67685633191949
H        -1.54063950041305    7.74435290043996    2.41853651328531
C        -0.69285207495313    5.76971156070680    2.47190136671682
C         0.44373094780158    5.05469074450259    2.84645929560612
H         0.44056549674473    3.98883334426327    2.69517885937914
C         1.56846574419768    5.64034693136010    3.40023097495723
C         1.49418126403756   11.38996731999449    3.28019392457120
H         0.62422606920048   11.85221891849913    2.77959723493377
H         2.40417570108017   11.86390811199024    2.88570092117414
C         2.17874736754329   10.89444744265659    5.64974108700071
C         1.37453355999692   11.63559185156618    4.76254337847948
C         0.46972696053472   12.57078447137532    5.23858700557906
H        -0.11784260233608   13.11655090834509    4.51662685872575
C         0.32152505298897   12.80469548613106    6.59562030170665
C         1.08211678128825   12.02611332724394    7.46583230257547
H         0.94774733554636   12.17441048193715    8.52357516436995
C         1.99060509241188   11.07358434112041    7.04292031829875
C         3.80691557535132   12.75412909789364   -1.90605057667937
C         3.45270673979033   14.04188714949430   -1.14831831133516
H         2.48204814932759   13.96275915255494   -0.66712551307420
H         3.42620186919259   14.88773030409262   -1.83263630634674
H         4.19782325825111   14.24186374347748   -0.38108140106919
C         2.74455860253773   12.47687160474370   -2.97915710523868
H         1.75505229372857   12.38558018826234   -2.54033213095159
H         2.97211786549922   11.54929923245538   -3.49981916995172
H         2.72236129872608   13.28619756121700   -3.70641672733647
C         5.14813720541298   12.97432804773231   -2.61099556881411
H         5.07221062258784   13.83349956921855   -3.27499810470248
H         5.42100681294678   12.11023442874051   -3.21181913805513
H         5.93935584753365   13.17337271145168   -1.89203136457836
C         6.21390010819136    8.81404116052648    0.26239138063937
C         7.29805425561136    9.13725619839501   -0.77142922861083
H         8.10420042544027    8.41151625631190   -0.67962740357756
H         7.71968508808045   10.12662335306484   -0.60799472328847
H         6.90735717494386    9.07674146902277   -1.78448535678074
C         6.84462964800308    8.89974761187227    1.65711771271472
H         7.71746903567977    8.25068917686949    1.71561049145509
H         6.12373004810852    8.58267811254303    2.40872158269108
H         7.15696054980604    9.92171047495176    1.87019070516507
C         5.72664477275626    7.37984720604557    0.01078066685328
H         6.55397564438891    6.67763913470461    0.09537124666537
H         5.30017361333345    7.29737459727099   -0.98738810236063
H         4.96602696160684    7.11165829063243    0.73880740611881
C        -1.87609440080586    5.02555054619277    1.86995973365320
C        -2.38720406859267    3.98895392265217    2.88039738826545
H        -1.62220548415736    3.25427303444692    3.11420130364671
H        -3.25149680137346    3.46463479817345    2.47749615127169
H        -2.68044823662065    4.48093291167914    3.80523014750098
C        -1.42709334786446    4.31817137500677    0.58356743029905
H        -0.64201040923571    3.59484634143407    0.78386380705360
H        -1.04554012622997    5.04506737547734   -0.13022593381141
H        -2.26578388954119    3.79401885443412    0.12954309208599
C        -3.03892074446245    5.95751231527161    1.51777275178437
H        -2.73576133309776    6.69917085382546    0.78258575496885
H        -3.41455685580720    6.46440987696305    2.40341937968371
H        -3.85438260210844    5.37595306650614    1.09198908752914
C         2.80159386612032    4.83689043213135    3.79705865247384
C         2.62047199592088    3.32934918814745    3.58795257749464
H         2.45011225297914    3.09371607750752    2.53994767788837
H         1.79252240692449    2.94727563861373    4.18106059096531
H         3.52529344935365    2.81266161791202    3.90229123837983
C         3.11263247445113    5.07809738053626    5.28160837169978
H         2.25551391854601    4.80847234076956    5.89619545654193
H         3.35244768840482    6.12647622687995    5.45218063885515
H         3.96375045277417    4.47188409991296    5.58708268058392
C         3.98942916105553    5.30272320599746    2.94203608400627
H         3.77542146768374    5.13958255124951    1.88670295049990
H         4.88334411601899    4.73920659292353    3.20503469817755
H         4.18395029615502    6.36506176981701    3.10393898337847
C        -0.63571997268783   13.84202796263104    7.16360696377108
C         0.15869593533028   14.85260444178824    8.00304986070297
H         0.66048745693921   14.36724750458713    8.83520906120099
H        -0.50622597081351   15.61514061226582    8.40391912452577
H         0.91268606459743   15.33932828830086    7.38802072860786
C        -1.37945350603553   14.61546222020462    6.07119902091147
H        -1.99408654553933   13.94947294958831    5.47026954410936
H        -0.68260311896846   15.14098859717456    5.42250302490136
H        -2.03450499571852   15.35343131018211    6.53029118841826
C        -1.67844865826741   13.14176701517503    8.04618624437600
H        -2.22951547338112   12.40645769478430    7.46377463960563
H        -2.38428666210530   13.86829007489346    8.44393747364814
H        -1.20913420151128   12.63061619607499    8.88186963825575
C         2.77416389013407   10.20549372720678    8.02062674646724
C         2.38471384199830   10.45081786682963    9.48250141355829
H         1.32838145339519   10.25010719351141    9.64625997707344
H         2.60718814045422   11.47145483416493    9.78599263813539
H         2.95676964602267    9.78095813155637   10.12176582016563
C         2.50829993519001    8.72464267466368    7.70487922324419
H         1.44657436015901    8.50551466156354    7.80782010914136
H         3.06010016901753    8.09054919438060    8.39680155459144
H         2.81696105538372    8.47964418709020    6.68743518537967
C         4.27003278252432   10.50996984596308    7.86646294769650
H         4.46838850356210   11.55454083726534    8.10175913142932
H         4.58697890695304   10.31642946958596    6.84439685812979
H         4.85359434226058    9.88419190140573    8.53955299312746

