15
CSD_code = LAKWIF | q = -1 | S = 0 | Stoichiometry = C4H4AuCl2S4(1-) | MND = 4
Au       10.91968629871844    3.27105136171728   15.22342258233619
Cl       11.40166315084314    4.67069943574164   13.47974289439591
Cl        9.06689514777886    4.49570802081780   15.77170545768280
S        10.42965094273528    1.82627921344508   16.95077582684140
S        12.77118407433526    2.01241852221533   14.66820690376259
S        11.86628745954797   -0.52592900039175   18.09106714435721
S        14.17489429085685   -0.22775561736786   16.00220722724026
C        11.83721990029768    0.79039298897516   16.91948751473901
C        12.78643081829264    0.85178365126100   15.97772342433037
C        12.01863169193629   -1.85407454491038   16.83046343811970
H        11.79288535044448   -2.78835905139971   17.34228161537284
H        11.25227259095770   -1.65044075074435   16.08260572769882
C        13.39776131957882   -1.89475942845851   16.21629496255904
H        13.37066316994254   -2.36271376429897   15.23161893016461
H        14.09967379373542   -2.42740103660263   16.85649635040092

