100
CSD_code = LAKXUR | q = 0 | S = 0 | Stoichiometry = C38H50F6N2OP2Ru | MND = 6
Ru        3.04777799245336   15.50675107433429    1.43357472333369
P         2.84930049040919   13.75780894565049   -0.16785398449968
P         2.42361146357122   17.32304286826534    2.84614950260332
F         2.03612088670702   14.33168173106844    2.75164274053575
F         6.45367719409308   11.42775729668032    2.98388246838398
F         9.04523515719259   10.92285796158769    3.53733643125115
F        10.69894581431327   12.94073245729710    4.34124320267709
F         9.71749821857288   15.47959749585668    4.58199112034319
F         7.11198554289136   15.98142337698683    4.06480901074800
N         4.95074756892344   14.97695524448453    2.43029827237634
H         5.74364166225342   15.53400132600010    2.12052168653173
N         4.33102102279151   13.15807164277837    3.66675228125570
H         3.39382956026420   13.35394592570200    3.28698285395549
O         4.42575177986148   17.15375976419926   -0.62544683034006
C         3.91114804352366   16.53197459690078    0.20446964627895
C         5.27768542070167   13.99774778578746    3.21080313829173
C         6.70063218250416   13.71534363290191    3.53512866075142
C         7.57787287445817   14.73328253443155    3.92111608404781
C         8.91491046693893   14.48547393291395    4.19681798278291
C         9.41646108679778   13.19105782851543    4.07670502160977
C         8.56802723282980   12.16150554779770    3.67309576318616
C         7.23304439474103   12.42780133025486    3.40590698514532
C         4.42315203715334   12.29290657024316    4.75754102544104
C         5.25902204634339   12.55496295721920    5.84144412477066
H         5.83579445250395   13.46780024180736    5.87501949750030
C         5.32928609830023   11.66432708433324    6.89650068776246
H         5.98301166640086   11.87926183289201    7.72887314915222
C         4.56038711224668   10.51379395675702    6.89515075819773
H         4.62097238641172    9.82019301108182    7.71957792622072
C         3.70249776664522   10.26733664725765    5.83542017971213
H         3.08840512129740    9.37939374409579    5.83373011321311
C         3.62986897339260   11.14768672467265    4.77434172100377
H         2.96581128965654   10.95330651410829    3.94807441159779
C         1.27103126266808   16.01942493362873    0.52626908419245
C         0.99118861748759   15.62307609244014   -0.78295832379077
C        -0.18556835952305   16.01446656825465   -1.40639102968544
H        -0.38394547288611   15.70892063231962   -2.42543360522114
C        -1.10983170501883   16.78718432615698   -0.72575516529020
H        -2.02527482147981   17.09111846048533   -1.21173263607340
C        -0.86249852078999   17.15722333178955    0.58378587364462
H        -1.59301425869645   17.74455640206780    1.12465152869607
C         0.32069890872857   16.78180559483869    1.20650709872023
C         0.59955207679466   17.16181741278507    2.63573736379183
H         0.29776550080129   16.32923817662003    3.28193685441863
H         0.05728566347035   18.06042279438329    2.94168146985731
C         1.98288269465066   14.72837055548472   -1.48114552252773
H         2.74080566753204   15.33811089417918   -1.98626632709927
H         1.49885603782847   14.09311590299244   -2.22762336333180
C         2.77493821125759   19.08824906594721    2.22877666489322
C         4.28976412577075   19.25632664912220    2.08453494269001
H         4.51169792828548   20.11717733303776    1.45534579948736
H         4.72888149801494   18.37519932982906    1.62019521953013
H         4.77271219443875   19.41133688666767    3.04443299506047
C         2.21711361878212   20.21297201077537    3.09993438915582
H         2.72276916722776   20.28249126988532    4.05838073399415
H         1.14810935056190   20.09616763540727    3.26407338168800
H         2.36814258803906   21.16068552824026    2.58287583129975
C         2.12456381526243   19.22401519159100    0.84836122146282
H         2.46567202336715   20.14336690308102    0.37342168362584
H         1.04100720376642   19.26722249327520    0.92442018309146
H         2.38282014371182   18.39177845051587    0.19877160948874
C         2.63513293651467   17.28892062878232    4.73959850988015
C         2.62764416174467   15.81570664280808    5.14953774598615
H         3.47350498604176   15.30353562004487    4.69980549986707
H         1.71508798042006   15.31521570599925    4.83678642029013
H         2.70949859964559   15.72715451100366    6.23292345870415
C         4.00310106401149   17.85745494344512    5.12014828722637
H         4.24110184245075   17.58164362611149    6.14750487972624
H         4.02744990428693   18.94163276631825    5.05866904952739
H         4.77753557600759   17.44707322995890    4.47259100976637
C         1.51956624614169   17.99554588795609    5.51049934138424
H         1.73547435857156   17.92425201438833    6.57673019994457
H         0.55973864901576   17.51585390878810    5.33615938264252
H         1.43400951593939   19.04664897368828    5.26088777820390
C         1.62274127140139   12.33083150247571    0.13981994560022
C         2.02879924102582   11.55383109563117    1.39480624900042
H         1.39221743063711   10.67475668653430    1.49848072733737
H         1.87222777363889   12.18262369458622    2.26462757433096
H         3.06270417349201   11.22385138314261    1.37026459617824
C         1.47923973396952   11.36609062211572   -1.03713244828309
H         2.35290114288219   10.72971935117455   -1.14890503423554
H         1.29289306316276   11.89173570823115   -1.97065483134438
H         0.62384924674578   10.71632868312115   -0.85128918689327
C         0.25220303081949   12.95368307628580    0.42097646029872
H        -0.18856718608828   13.39311304841831   -0.46961737776560
H         0.33051990237216   13.72374968545291    1.18503021684574
H        -0.42346570144149   12.18101413654267    0.78746571012139
C         4.38016053988732   13.06947974080808   -1.08031987418910
C         4.97707873449925   11.90933486282324   -0.28283046302548
H         4.37365055502279   11.00964150184276   -0.36198195473252
H         5.07213996369530   12.18108144240504    0.76820972247678
H         5.97140381965473   11.67126777476222   -0.66081269259822
C         4.13966950424584   12.65190236413798   -2.53080741858789
H         5.09614940371863   12.38174013579369   -2.97878351050525
H         3.72268435554858   13.46961696560038   -3.11281044114940
H         3.48450649401628   11.79323928887220   -2.61594974663281
C         5.41531628695397   14.19705676943093   -1.09267208372268
H         5.60095193273998   14.55896264471086   -0.08142586100075
H         5.08845268165642   15.03108937749592   -1.70850971844385
H         6.35706661775332   13.83183558766101   -1.50220843382781

