97
CSD_code = LAKYEC | q = 0 | S = 0 | Stoichiometry = C38H53NO2P2Ru | MND = 6
Ru        4.04555574971022   10.72229591624093    1.30649737198903
P         3.19979565120945   12.51269593435217   -0.00754305987874
P         4.33348318852642    9.28189701909120    3.15691061523884
N         4.52258560262379    9.19636863438186   -0.16338825509898
O         6.68528260726265   12.04051966901046    1.71408202244378
O         2.44939541277976    9.54842718008796    0.46245366259291
C         5.64283770366944   11.54201081234036    1.61976610827682
C         2.98322551950642   11.76666775548635    2.72972402304651
C         3.21965193893708   11.56721797005224    4.09219440904604
C         2.46581499018847   12.22709223369365    5.05299100377022
H         2.67151030690960   12.06901000974915    6.10370358179142
C         1.44302645091000   13.07757488221999    4.67061805661682
H         0.85779675976158   13.59305526951644    5.41803725075775
C         1.16031465678978   13.24748505895371    3.32718798202961
H         0.34304130787703   13.88933713125308    3.02469445789608
C         1.92259858248343   12.59834386483071    2.36513111722027
C         4.28640276418773   10.57935813192406    4.47613252494837
H         4.12821172039171   10.17229725914040    5.47717885272004
H         5.26671346373375   11.07105641811674    4.44688719322058
C         1.60968733279630   12.73428614274583    0.89945216297528
H         1.09982595118236   13.67140268831617    0.66081513500003
H         0.96033700222233   11.90267793655217    0.60745455078704
C         4.01097460557677   14.23015529032320    0.18060750993215
C         4.28284246696641   14.45016951102896    1.67338068500056
H         4.74228323940920   13.58160660182299    2.13813776269941
H         3.36114525128930   14.66785026278227    2.20738829560061
H         4.95620564247434   15.29794853443211    1.79569778328873
C         5.34015981177906   14.20190526571062   -0.57524114361501
H         5.93425530938612   15.07903141753486   -0.32195843904343
H         5.18433303167085   14.20562200357432   -1.65170599876545
H         5.91106211809244   13.31474171341611   -0.30855977482410
C         3.18220368539206   15.43484464454457   -0.27814431939586
H         2.14726111919664   15.36478443271880    0.04569382233683
H         3.20626173301240   15.57931607795387   -1.35140223668519
H         3.60295543549178   16.33138150215122    0.17620492324841
C         2.68483999640806   12.27573587230007   -1.83574441076347
C         1.45785211936863   11.35651503980604   -1.88110207589105
H         1.36018117664019   10.92351526276364   -2.87683514087361
H         0.54865920584589   11.91744516225896   -1.67027877435397
H         1.52949650881412   10.53817159406237   -1.17064039478033
C         3.87115866755101   11.58572394125110   -2.51486531315544
H         4.16394284116237   10.69620191811901   -1.96144405152172
H         4.73383245650166   12.24660906145366   -2.56402269729865
H         3.60919836369442   11.29020460563217   -3.53081039737719
C         2.32512177029970   13.53278537468965   -2.62550851072362
H         1.91543978447579   13.22773965510935   -3.58913511154205
H         3.19664078719383   14.14897656561851   -2.82503845135976
H         1.56881696462464   14.12302565818934   -2.11498001351401
C         2.88374987038536    8.13131589398348    3.61748144485909
C         1.61664821555351    8.98926252105465    3.53795245587712
H         1.54595227027234    9.48229895674165    2.56862672856880
H         1.59683246606983    9.74861355408723    4.31554249684444
H         0.73654278710492    8.35708487435282    3.66094448473066
C         2.96316642777645    7.51662751106691    5.01405263435759
H         3.08967576273663    8.27602938123042    5.78203611313452
H         3.76754169055591    6.79005711162892    5.09269400625414
H         2.02861305816950    6.99387539441196    5.21891841784228
C         2.75764474069333    7.01139829200424    2.57788146707138
H         1.74841817572418    6.59984018500600    2.60312958017359
H         3.44796079494100    6.19457180886969    2.76282181595642
H         2.93888864367395    7.39270418605389    1.57656468076591
C         5.96933018817112    8.38267377274000    3.54858295528982
C         6.30058193546054    8.32151938713480    5.04070652901402
H         7.22144359038580    7.75300899899096    5.17001479471192
H         5.52477646678183    7.83356802205360    5.62079280002092
H         6.46669990508998    9.31476265053230    5.44908703153586
C         5.97730477278854    6.97500265270275    2.95332146909613
H         5.61269906699433    6.99130247979332    1.92788818838399
H         5.37970042098307    6.28452457317317    3.54215925492784
H         6.99772701939127    6.59233825062596    2.93452126377714
C         7.07057466866482    9.18019428367399    2.84841663322482
H         7.15931503547179   10.18125771633320    3.26372667139065
H         6.87081946028893    9.25458474632816    1.77906043623752
H         8.03006180850034    8.68055716197004    2.97865286515233
C         3.24761134820578    8.90709814505849   -0.29101609799808
C         2.67056112362726    7.98964259195459   -1.30826832456167
C         1.47450725536798    7.33929131545059   -1.01622938365558
H         1.02012294267422    7.48576536363200   -0.04706251295934
C         0.87813179194890    6.51981185604676   -1.95570992041740
H        -0.04480421941794    6.01141680025914   -1.71739606689267
C         1.46037387649089    6.35593384054777   -3.20135371942906
H         0.99496473574044    5.71601916414962   -3.93667145025524
C         2.63605984599931    7.02279495657125   -3.50721832006866
H         3.08348141675151    6.90930060747333   -4.48385698370154
C         3.24057056878589    7.83810774174343   -2.56970327859715
H         4.15111767386126    8.36206448685930   -2.82059676745165
C         5.59156947355005    8.48236334529515   -0.66477801862073
C         5.59746283224388    7.08541829610921   -0.73947769518269
H         4.71691601507281    6.52871138636924   -0.44756927912510
C         6.72451086189128    6.41948824993879   -1.17795328228914
H         6.71566963598512    5.33998665095010   -1.22975045910007
C         7.86200081725617    7.12174127707285   -1.54109010545070
H         8.73987601415364    6.59322833820515   -1.88144572080834
C         7.87030053570461    8.50493174928299   -1.45202526713778
H         8.75772545529860    9.05890274746102   -1.72179978383235
C         6.75116885002127    9.18109733747558   -1.01241958407323
H         6.74871315018269   10.25952449824944   -0.92095949161532

