99
CSD_code = LAKYAY | q = 0 | S = 0 | Stoichiometry = C38H54N2O2P2Ru | MND = 6
Ru       12.96943745184473   12.60035328334782    4.15646722936822
P        10.60695318576737   12.72897221792812    4.16607538818598
P        15.19394241949448   12.89352801510725    3.43743395577182
O        12.64084164170548   10.99380744853026    2.66953203630861
O        13.28630585981759   14.44014387648448    6.47523704917826
N        13.24509391811620   10.47758412804477    4.72285335460795
N        12.51241660068098    8.77584562315568    3.28186966824704
H        12.53418763286279    8.17218996479339    4.09329051814502
C        13.18319087515143   13.67840042417498    5.60827020267676
C        12.74799586744311   14.53430537928237    3.44316119123578
C        11.51048184652809   15.18791556518689    3.47210971284503
C        11.34864349612444   16.43309983179168    2.88122723504412
H        10.37876268246054   16.91255119734054    2.89046559465572
C        12.42877452776442   17.07105107027273    2.29620768248223
H        12.29931806159087   18.02947983307564    1.81566587193113
C        13.68651709172403   16.50254361968700    2.38995902702186
H        14.54818654834192   17.03776380570586    2.01329135654149
C        13.85163197513545   15.25823683221102    2.98452750816042
C        10.40318674790696   14.55763737380883    4.27656804624821
H         9.41280672704028   14.90594260223108    3.98250086833877
H        10.56754616296356   14.83776335663947    5.32263420238955
C        15.23120892842331   14.73264385946702    3.28295316943832
H        15.50867081042916   15.11738751865966    4.27236828104265
H        15.97544452160597   15.08439206451895    2.56519522430549
C         9.63646203374426   12.38728691918057    2.55783146018122
C        10.55182959337159   12.81422832360677    1.40673151545738
H        11.44509686159401   12.19943754359520    1.38613784749349
H        10.84312364280768   13.85914088868478    1.50124347761291
H        10.03023419062258   12.68785466732930    0.45801060066314
C         8.33062455023786   13.17608351489934    2.41048229768091
H         8.52637099519237   14.22307862062715    2.19325023313368
H         7.68851828417408   13.11026539738790    3.28121730577077
H         7.78199031842430   12.76760196660884    1.56178615151165
C         9.34096432457280   10.89261329439033    2.42463979108499
H         9.04886828103849   10.66347065433965    1.39970924659170
H         8.52650836975565   10.58626196025684    3.07768030287306
H        10.22516127927226   10.30326500012542    2.65300300641866
C         9.64441625798581   12.04871069989224    5.66226184972990
C         8.14094458999069   12.30802576384787    5.67331855681543
H         7.62651759670191   11.73190998218084    4.90863764305521
H         7.92350695223232   13.36582882028503    5.53953899849146
H         7.73689772641634   12.00502404848209    6.63965870479433
C         9.92431833011974   10.54583478979346    5.74860754821532
H         9.54109003900843   10.14745708742095    6.68795963681636
H        10.99863949632832   10.36957514878597    5.71984373224031
H         9.45819246983247    9.99512650124127    4.93672556182676
C        10.26370235887880   12.70402211499337    6.90002666418010
H         9.93297879715741   13.73294444785093    7.02134412107870
H        11.35216035367338   12.69006123224541    6.82962139085310
H         9.97348066209360   12.15470258051709    7.79479943731425
C        16.65379115995442   12.54266919157564    4.60273640022485
C        16.10295570960160   12.77081849701256    6.01259834138187
H        15.23823957548213   12.13028174845519    6.19012007486273
H        15.80663783285831   13.80756720607287    6.16069342368218
H        16.86319096258995   12.53020830736253    6.75492713726238
C        17.87629137439439   13.43860910337276    4.40608451088553
H        18.62258547178162   13.17958447738371    5.15710548922104
H        17.62804414107272   14.48856596265107    4.53674837387183
H        18.33071756018905   13.30827471208944    3.42998505950989
C        17.05580236852514   11.07238743679809    4.48912673190739
H        17.66411601679610   10.78577883557134    5.34668177494229
H        17.64019391618010   10.88564387012547    3.59128899521288
H        16.16985963734457   10.43899279587426    4.48349888331900
C        15.64224865900836   12.38038467960742    1.66028200768612
C        17.02177969866543   12.83365368354302    1.18364449753502
H        17.08084188225813   12.69355270987215    0.10411775277409
H        17.81271629881502   12.23928091049875    1.63462274235668
H        17.20738353200688   13.88502975873921    1.38849088320288
C        14.56053598393269   13.04491575511109    0.80180260382788
H        14.69925277281698   14.12136593679343    0.73742419392733
H        13.57597622708445   12.85181377624423    1.22869241331417
H        14.58122137469628   12.63849073524590   -0.20900882054415
C        15.53751589162916   10.86549734164588    1.47124438267136
H        14.55087103960842   10.51458360554567    1.75338541538179
H        16.27948365856847   10.32414179493740    2.05017722216150
H        15.69049964638211   10.62054951865350    0.41964803645901
C        12.82224716742480   10.09668740091053    3.53822907161570
C        13.73025428287979    9.66852127866766    5.72915534921267
C        14.48219409010515    8.51076169302651    5.48920964051954
H        14.70247048733306    8.20764177827522    4.47393297429189
C        14.99182128296166    7.77745759077705    6.54360824208838
H        15.57170290737362    6.88871599680526    6.33745134900047
C        14.77520116610148    8.17526612448022    7.85159239967201
H        15.17430533486727    7.59481654068496    8.66971904340985
C        14.05968700831098    9.33667310333798    8.09929857653848
H        13.90328685360985    9.66829050721874    9.11562711155220
C        13.54862945661967   10.07751556825894    7.05519513006346
H        13.00740823350717   10.99527027696237    7.24049360002653
C        11.99888207386271    8.19718582297145    2.12706705257757
C        11.52750401681490    6.88632048512485    2.21120269010519
H        11.56545840304726    6.36847926819088    3.16031749582221
C        11.01775809475096    6.25287581547170    1.09589023645371
H        10.65665537525144    5.23808321049838    1.17807624321626
C        10.96746378292298    6.91292834832809   -0.12103254612371
H        10.56601160421117    6.41734746645576   -0.99199174638100
C        11.43899038462663    8.21119146870510   -0.20922322660975
H        11.40837908672087    8.73383554055230   -1.15415918267308
C        11.95588207456201    8.85412660929598    0.89959527903967
H        12.31851050380497    9.86501489412215    0.81889523347736

