48
CSD_code = LALCAC | q = 0 | S = 0 | Stoichiometry = C17H20N6NiO2S2 | MND = 6
Ni        1.64993597109880    0.27091997112567    3.15780850710153
S         2.41785736230716    2.43166698743319    4.26170901434010
S         3.84156140230714   -0.15186974219082    2.07238902874544
N         0.22916079366370   -0.43839101325319    0.92654229022094
N         0.32122197476159    0.81833003347493    0.89017289035901
N         0.99000916572920    1.38051117178548    1.87232180911827
N         2.23268462049217   -0.89124633511820    4.42774173758892
N         1.41926658762100   -1.12876636361704    5.43365721891537
N         0.33428534499122   -0.48757009783251    5.41994432682992
O         0.73726860249827   -1.18336255196403    1.85846419345851
O        -0.01091028325952    0.34041967640474    4.48216767408862
C        -0.48661845162309   -1.09514806819657   -0.13912046721172
C         1.08873410181218    2.74575181926816    1.86545006015257
C         0.55232540603876    3.54058883780812    0.83990955402332
C         0.70979878060160    4.90806941212243    0.85752914312961
C         1.39380880135919    5.53198358948824    1.89285746690793
C         1.91327542565786    4.76850803808597    2.92234554959938
C         1.77628143260611    3.39226009317741    2.90349690627790
C         4.21898845794493    2.82936021238167    4.14219402327160
C         5.11079410933426    1.62000206008503    3.89960853458378
C         5.11853647735956    1.11356483442905    2.46315315297550
C         4.27088180969801   -1.38624810166943    3.28909242597135
C         5.44706611084120   -2.10021033767204    3.16188323018512
C         5.77694237730118   -3.05978048031938    4.10155417102100
C         4.90945997787921   -3.31147078175064    5.15725436888867
C         3.72715525095798   -2.61757222593916    5.28235442404546
C         3.38035505729491   -1.63164198650619    4.34551165761927
C        -0.58078709364250   -0.67197154349223    6.51822793107666
H        -0.83079661788991   -0.34499158446919   -0.84601658442711
H         0.17670096901747   -1.80854175925832   -0.62991827379371
H        -1.33356138781556   -1.64058687742831    0.27903398992392
H         0.02109704976196    3.05071919759608    0.03955708668547
H         0.29323910420082    5.50114133089534    0.05636561751726
H         1.50958945491050    6.60472727623154    1.90432120658458
H         2.42921104209006    5.23711765444934    3.74773256249948
H         4.47969357109053    3.28580892775637    5.09749170052918
H         4.32735644158212    3.56785582835996    3.34958455257298
H         6.13416382967394    1.90973618469863    4.15802876559246
H         4.82480571484425    0.81058207740182    4.57711834634470
H         4.93904780781169    1.92031395571931    1.75285535590683
H         6.07554709516430    0.64647977609381    2.23183641819398
H         6.09981443420605   -1.90182884006961    2.32466250453376
H         6.69725906892339   -3.61483373027976    4.00698675373595
H         5.16186947171462   -4.06536764182370    5.88870629995000
H         3.04721985697846   -2.81262664120465    6.09632178455114
H        -0.15722359501254   -1.39364848164436    7.21148261129427
H        -0.74356824889054    0.28559548989920    7.01491201221945
H        -1.53630463598917   -1.02883925047812    6.13241646630111

