47
CSD_code = LALMER | q = 1 | S = 0 | Stoichiometry = C18H16CdClN4O5S2(1+) | MND = 6
Cd        9.33315696999631    8.63877154522537    8.82111684292345
O         8.02853023827930    9.05929578050605   11.01254863929205
N         7.19070424376298    8.49142051389588    8.07917678330823
C         6.88963328690029    7.28371642608513    7.66512073286861
S         5.48290779745635    7.22481594803831    6.67159962931183
C         5.32154859123128    8.91684170586131    6.85143369210411
C         6.32398506000662    9.42892876843640    7.62955360753429
C         6.52203962174456   10.85645710160655    7.98710563020355
N         8.82832038300308    6.43078888984705    8.64448579661595
C         7.72456123989508    6.13829669291137    7.96460587361055
C         7.44994038602032    4.83447577524181    7.54519351710505
C         8.37236883006085    3.84668691040104    7.84228895944401
C         9.54099087116499    4.17317235531724    8.51773508742236
C         9.74219456018655    5.49893811679083    8.89884811990473
N        10.95933293136948    7.33794532692034    9.72577588222525
C        12.03851237316453    7.97394060380510   10.16965743839079
C        13.20712269141551    7.28419038379258   10.50103897901696
C        13.21891168273697    5.90937052932976   10.34399365748163
C        12.09641530530331    5.26112058921159    9.84573185561262
C        10.97196668108973    6.02256450218987    9.53064910943119
N        10.77481036537864   10.01690303121367    9.91615733788340
C        11.89941069283380    9.41502091215032   10.22271181731507
S        13.18558114287121   10.50010431594168   10.59184708550463
C        12.12133967720395   11.80859256550108   10.31527143107619
C        10.87715736813092   11.36610419006346    9.95630993417349
C         9.70422970689292   12.21104106741007    9.61634550484550
Cl       10.36164477940854    9.11903277793360    6.45188207962586
O         9.57767153632043   10.14746037266402    7.10050919894915
O         9.52709110600678    7.96403729629977    6.36000564739437
O        11.44382428478194    8.81143033833756    7.32926791380013
O        10.80042238874745    9.55163979822140    5.20398522700677
H         8.49968449729618    9.19443381219032   11.84060643274591
H         7.43710979885009   11.20808247115013    7.51011319579975
H         7.25219979400468    8.52877311913226   11.21681657470697
H        14.07484091796290    7.81528252483488   10.85926832272344
H        12.45905556511279   12.82020295715507   10.41862414854418
H        14.10374931020696    5.34306250106408   10.59101306925604
H        10.27504332265744    3.41256338514633    8.72520986832067
H         9.90565884282775   13.25586483868991    9.83190658116875
H         9.48961690644522   12.09155731290932    8.55410915719633
H        12.10996186476815    4.19405890440625    9.69871020945657
H         8.19415060291599    2.82805220505712    7.53362607934079
H         6.54826954699479    4.61308599540173    6.99626732638667
H         8.83354298655745   11.87895618592093   10.18034536446902
H         4.51799658549061    9.44345119158095    6.37701433209976
H         6.63886606879505   10.95297458678718    9.06579672707283
H         5.68212659576135   11.45799287742345    7.65341959932164

