39
CSD_code = LALMUH | q = 1 | S = 0 | Stoichiometry = C18H14AgN4S2(1+) | MND = 4
Ag        0.00076406873101    1.88730206263335    4.19193373983405
N         0.99046072968350    3.78921206221138    3.30451990619685
C         1.37211636326733    4.70517002879430    4.15974074248571
S         2.10823810964879    6.08041875485174    3.41334915281303
C         1.87073563178223    5.34141874939807    1.88817867637317
H         2.18548612227236    5.83057510376609    0.98878805171538
C         1.26144291929351    4.12644922977420    2.02086972413048
C         0.88437791094741    3.20146081744011    0.91838838135037
H        -0.17295242625591    3.31783731665916    0.68045368812135
H         1.05933548130960    2.17129145985075    1.23078100833090
H         1.46346274551961    3.41142472920700    0.02428461368762
N         0.64132001499976    3.43393517960401    5.99012142681191
C         0.43030260071347    3.19294325161024    7.27999511689887
C         0.78658356805058    4.12602913969182    8.25420490257368
H         0.61534106897863    3.93828622067721    9.30081001014757
C         1.37172277065551    5.31829177295616    7.85191026103085
H         1.65682657870053    6.05580089135849    8.58633078515083
C         1.58784533463948    5.55739494043483    6.50615976518461
H         2.04093728929426    6.47489912641411    6.16534167574233
C         1.19975968621336    4.57246645449033    5.59483348963010
N        -0.48316271230823    1.16124103050052    6.48893961864249
C        -0.19676024781824    1.88452723591508    7.56652180359488
C        -0.47938210137129    1.41004098472344    8.84780014834871
H        -0.24789214524512    1.99025045288461    9.72513867271954
C        -1.06985054089973    0.16121390436162    8.98018435773935
H        -1.29866739346041   -0.22774487435433    9.96045726999365
C        -1.36322924326863   -0.58285266785400    7.85093496494749
H        -1.82178966226304   -1.55630715859262    7.92430291215771
C        -1.04722153272727   -0.03572959703874    6.60512861481077
N        -1.01064684434355   -0.20098572839350    4.18163808982085
C        -1.30647663635189   -0.71578527842569    5.34935308819467
S        -2.04420828284311   -2.27645575847985    5.24686042543625
C        -1.92926904257013   -2.18510828227343    3.54188713393133
H        -2.28518753204531   -2.98606409020780    2.92620443830965
C        -1.35302644603887   -1.01024875422344    3.15085095295798
C        -1.08040966854526   -0.58153259617683    1.75252110554138
H        -0.05031668192906   -0.81626361875440    1.48457027284277
H        -1.22548283145438    0.49615939594413    1.66774606991280
H        -1.74062702296110   -1.09136189137744    1.05736494188786

