52
CSD_code = LALMES | q = 0 | S = 0 | Stoichiometry = C22H19N3NiO6S | MND = 6
Ni        7.35313441679252    0.93789279977978    3.87831689040381
S         9.79034169025558    1.50585048900012    2.90367216976994
O         5.62630373725807    0.32368016806534    3.84499221045711
O         2.25591275641687   -4.85762224806816    5.22064435854945
O         9.05594412138876    1.77013315914627    4.16206950652565
O         8.95561351392894    1.81358985877171    1.74013707473635
O        11.07543743171180    2.15005740325158    2.89947371655606
O         7.23399398430672   -0.14750116615014    1.58163933380849
N         8.11203132427666   -0.78945540072820    4.24440931286437
N         6.70336352533468    2.78526166694217    3.57546611048146
N         6.96685242433077    1.76664985826239    6.09191112197084
C         5.18306896744600   -0.82629776398967    4.16162458485910
C         3.77085149934956   -1.02804380994852    4.19995437539945
H         3.15105516030148   -0.17586744400251    3.96692280095067
C         3.22564687016385   -2.23343509089865    4.51790758098581
H         2.15491058802525   -2.37289137539314    4.54766788152753
C         4.04213284064742   -3.34638241109903    4.81803840490329
C         5.41620661325324   -3.18622502603742    4.78135048387878
H         6.05268586559877   -4.03263664505984    5.00507961721325
C         6.00725977986569   -1.96022276142246    4.46947470280297
C         7.42974262038483   -1.85951800584620    4.43507110383932
H         7.96492196340229   -2.80164077066284    4.59012397113183
C         9.55551324578192   -0.88154912529775    4.20260689616743
H         9.87205204933535   -1.93011794533362    4.31594702741065
H         9.96494743992080   -0.29291113844044    5.03161702947222
C        10.09949363198100   -0.30422557599959    2.90775992573260
H         9.61124981238732   -0.73834215900232    2.04039587895911
H        11.17646212495369   -0.41822533100457    2.84254460378388
C         3.44100958978240   -4.62696047896158    5.15547505747860
H         4.18358921611370   -5.42593713912771    5.36330600268782
C         6.55120232652127    3.27155264290561    2.36257062919225
H         6.38519018890497    2.56421989087603    1.56253216450154
C         6.59511709827204    4.64100506132248    2.08247576201082
H         6.48589324483426    4.98022275640533    1.06480683830324
C         6.79113465709324    5.52688001660686    3.11145336264603
H         6.84683166152837    6.59121041442774    2.93387363404038
C         6.91976333659992    5.03475376737739    4.42106246167206
C         7.11324060462533    5.89084725437772    5.54373019046350
H         7.14975039393035    6.95609509426630    5.36870183635418
C         7.25992832135000    5.38671268012611    6.79157972281174
H         7.41872824669143    6.03871600148547    7.63822946630503
C         7.22080307207012    3.98190377735158    7.02093969672286
C         7.38865719253130    3.41457630112469    8.29609016692371
H         7.55216421611849    4.05893169316462    9.14829953332384
C         7.34317089717206    2.04969430440123    8.43263807101583
H         7.47148184387365    1.58007679253152    9.39541408038667
C         7.12047497134333    1.26528807746962    7.29332043427399
H         7.05796389858654    0.18755005106463    7.37307804914709
C         7.01964741209473    3.09986479666509    5.93582043181540
C         6.87235648615250    3.63566003636851    4.60678163384834
H         7.86367024460815    0.58406573889413    1.38791476177686
H         6.38020088040129    0.10166626004696    1.21938733715624

