49
CSD_code = LALMIV | q = 0 | S = 0 | Stoichiometry = C18H14Cl2HgN4O8S2 | MND = 6
Hg        1.40269003999110    2.71348836069235    3.06860043158402
N        -0.65510226410809    3.33205220558407    3.82078645350498
C        -1.34103970193808    2.35603039379835    4.36029492049789
S        -2.71325483626596    2.89260613209226    5.24175140069352
C        -2.31222541991734    4.50789559558159    4.83786424144533
H        -2.91617874016944    5.32351117585360    5.18099290708596
C        -1.17616271648209    4.55502877083461    4.08051427155945
C        -0.48828958459518    5.76361240848323    3.56260756797654
H        -1.11409315736079    6.64557660228281    3.66540291598161
H        -0.22485948120822    5.59920413614549    2.51755555585328
H         0.43702182488234    5.89796025621181    4.12428044502006
N         0.23730074557680    0.81393359661565    3.61539031514518
C        -0.92092284900659    0.97419947839234    4.24487900790737
C        -1.63104047939503   -0.11400828215399    4.75470855875766
H        -2.56702428943536    0.03751916481402    5.26933064518933
C        -1.09142474621718   -1.37654147602946    4.58620207558003
H        -1.60512687186659   -2.24194304718802    4.97783652120114
C         0.11324406547947   -1.52976461402362    3.91359188038792
H         0.54206134031886   -2.51036834759692    3.78668685583765
C         0.75895848041809   -0.39277011383585    3.43105495194878
Cl        1.96159830845927    2.85641220237929    5.94391343983709
O         2.55196334182147    1.74268627901707    5.27426280593086
O         1.95280999303809    3.96807967498597    5.01470114291595
O         2.70019096293132    3.21191097586612    7.08134242340908
O         0.61652805705690    2.54344032877382    6.27477772000922
N         3.46079128700351    3.33199474377187    2.31715632548870
C         4.14668449527197    2.35597717256916    1.77757538053849
S         5.51882531398548    2.89252168829104    0.89606603089894
C         5.11794052280983    4.50781132497786    1.30009895666635
H         5.72192067129149    5.32342252690066    0.95700902447581
C         3.98175348007271    4.55497027910558    2.05725306978547
C         3.29371695814218    5.76357405889710    2.57488424233699
H         3.91943523744434    6.64558241308232    2.47195418209067
H         3.03028447289149    5.59933565904989    3.61996022268300
H         2.36840148841219    5.89770817837576    2.01315815547696
N         2.56836350528951    0.81389502785607    2.52255832625322
C         3.72649971326424    0.97415404273344    1.89292593113300
C         4.43649203483885   -0.11403495231253    1.38288352703466
H         5.37255107035330    0.03748077485501    0.86839539071319
C         3.89682523655922   -1.37655689179323    1.55131156122995
H         4.41057378444233   -2.24197587426473    1.15977259429354
C         2.69216699258985   -1.52976203204039    2.22394048935326
H         2.26328585820751   -2.51034256257850    2.35079744381889
C         2.04659217806165   -0.39278315101711    2.70670726772534
Cl        0.84355797137882    2.85628340875517    0.19366815463397
O         0.25359688441541    1.74250690182149    0.86338298076047
O         0.85227689921937    3.96792950806598    1.12279477575855
O         0.10477674486612    3.21170337829921   -0.94369842217709
O         2.18856517717590    2.54355251901908   -0.13748506623172

