39
CSD_code = LALMOB | q = 1 | S = 0 | Stoichiometry = C18H14AgN4S2(1+) | MND = 4
Ag        8.51731481877782   13.43915342691280    4.26839604711890
N         9.55852207703633   11.36575955749669    4.15842407705815
C         9.85845821836606   10.79976041150326    5.30123594098560
S        10.62194634651670    9.25788920260276    5.12677830746922
C        10.51248270261816    9.43009461603799    3.42801366783906
H        10.88390136000518    8.66619673100303    2.77547579233524
C         9.91814157012304   10.61300699018239    3.09144434367541
C         9.64316328165460   11.10215640127692    1.71349143804167
H         9.71112224635673   12.19069769060425    1.69454350539384
H         8.63912396878552   10.80954131337444    1.40650878251262
H        10.35293936872311   10.68281214203902    1.00656208140690
N         9.00447843621943   12.60697923224472    6.52815574222354
C         8.70707077829083   13.27335106458168    7.63896856211947
C         8.99283945764149   12.74051242222731    8.89640158135756
H         8.75309171082892   13.27466699322383    9.80035181092035
C         9.59849952647842   11.49410719432439    8.96950900364356
H         9.82967827022007   11.06045856802707    9.93028910784140
C         9.90484731704844   10.81034477119106    7.80613225800592
H        10.37632308709570    9.84068757815002    7.83338092943498
C         9.58488170953270   11.41364906695733    6.58753975702749
N         7.87223458746897   14.89737278104473    6.13751662140315
C         8.06671555022268   14.58749911906720    7.41522954814256
C         7.68325707112491   15.46027007586495    8.43402002629844
H         7.83855443732515   15.21544347279309    9.47125837543051
C         7.09082080558375   16.66688422038185    8.08935872333535
H         6.78544389914433   17.35898662282451    8.85898455716005
C         6.89250302151279   16.97816301286242    6.75571771057029
H         6.43330793427194   17.90798749422137    6.45934931097383
C         7.30463127508811   16.04914025052108    5.79739671500761
N         7.51675968481444   15.37809158333829    3.47181910450383
C         7.14493495657623   16.25648428595311    4.36987868385927
S         6.43243754124237   17.67779001622410    3.68946409797947
C         6.66481131677773   17.01107468545396    2.13096470385332
H         6.36090071886642   17.54785176292082    1.25528525620497
C         7.25494000228413   15.78145280183657    2.20564021584039
C         7.61737552988301   14.90513818952355    1.05915740272897
H         6.97053818646171   15.09683661824134    0.20812046229561
H         7.52452849223358   13.86017934255514    1.35803688034666
H         8.64757873679887   15.09172829040996    0.75629886765515

