42
CSD_code = LALMOC | q = 1 | S = 0 | Stoichiometry = C20H16N3O2Pd(1+) | MND = 4
Pd       -7.37023986915498   -1.27387035398604   -1.56662129862071
C        -7.95169317867002   -1.60817828185688    0.34082031052189
C        -8.53146821812788   -0.60370476212012    1.10570743240755
H        -8.84513203520004    0.32559516298900    0.64031005118067
C        -8.73676019630293   -0.76560874095042    2.47062309578723
H        -9.19735345787305    0.02789344700240    3.03947818922600
C        -8.33634319070489   -1.93302177288624    3.10474432031708
H        -8.46939521293289   -2.04481890735661    4.16937361320661
C        -7.78750364903352   -2.95602464596213    2.36509033710062
H        -7.50882969016948   -3.88334558154082    2.84286129771558
C        -7.61790330567686   -2.83213484792861    0.97289963953225
C        -7.25450081507465   -4.01740619073170    0.24768486370272
H        -6.96221616541506   -4.89619704645428    0.80569893466824
C        -7.40969392461376   -4.15252020857561   -1.09680269534258
C        -7.39517693052883   -5.38367742416044   -1.89848048619749
O        -7.08901667308319   -6.50561077403125   -1.64491554118698
O        -7.87873942147418   -4.98619842871354   -3.15133317029856
N        -7.82965498594640   -3.13698082609143   -1.93547358378744
C        -8.11093484099800   -3.66364124419559   -3.09332049305606
C        -8.63440928194233   -2.93665488633146   -4.22821944079783
C        -9.14940509076216   -1.64092993738386   -4.05706700507344
H        -9.23528314248263   -1.19783825378370   -3.05032404970954
C        -9.62163356886488   -0.94703289780421   -5.15412835878317
H       -10.02704651918300    0.04504167509569   -5.02812611984260
C        -9.59667591830457   -1.52759283984331   -6.41571643327197
H        -9.97329103291298   -0.97972709640050   -7.26548040145581
C        -9.10884902571598   -2.81496138688459   -6.58329259717743
H        -9.10737348681371   -3.26933274861353   -7.56190437372451
C        -8.63015178163315   -3.52221938010206   -5.49724701980143
H        -8.24895000385619   -4.52515710701570   -5.61173983523688
N        -6.82149154847870    0.52621871477156   -1.14411919774671
C        -6.40588303529375    1.56560766536470   -0.88391423778018
C        -5.91837840780493    2.86019201585939   -0.54991787612752
H        -4.91532848093303    2.99577822936390   -0.95461088479331
H        -5.88298268384927    2.96752733627830    0.53460063244759
H        -6.57836530189670    3.62245927099764   -0.96479720786339
N        -6.23718154553817   -1.09576261065414   -3.46879176979955
C        -5.59623929238780   -1.39314922351617   -4.37355469922509
C        -4.81660387251290   -1.73675623269346   -5.51157657942998
H        -4.20663022239025   -2.61335798474165   -5.29231815297205
H        -4.16382382505083   -0.90468734711039   -5.77626271653488
H        -5.47676717028867   -1.95751354747816   -6.35083649226988

