43
CSD_code = LALNAN | q = 0 | S = 0 | Stoichiometry = C12H24O4P2Pt | MND = 4
Pt       -0.47990502984204    2.25164981616714    0.31011526046627
P        -1.18319938901093    3.42686888017119   -1.50478647010794
P        -2.19872565056191    1.71898343878592    1.69975026990193
O         1.23767388354324    2.36392768273411   -0.79352684150176
O         0.45708211942639    1.04316419266295    1.66749994955685
O         3.41168921101448    2.64473572591315   -0.62981401387263
O         2.32679866332570    0.79509529946143    2.79684448755574
C         2.31656396643496    2.56152788181765   -0.11331593798746
C         1.64356929690099    1.41754662782173    2.01025067728464
C         2.13914210004888    2.74434467254990    1.40535100702915
C         1.26759851827756    3.96833132392758    1.78838949854229
C         2.48279530539376    4.58429504453290    2.50437336999066
C         3.34071751276794    3.36881860454003    2.12256979336895
C        -2.90584088510016    4.03121923989938   -1.72041147958419
C        -0.94244411760473    2.40508938218148   -2.99458008543133
C        -0.21037488576033    4.92432258594254   -1.88863118833413
C        -1.89905670548323    2.04551622816773    3.47166409207187
C        -2.44093248285376   -0.08703313284964    1.66633355031151
C        -3.91239119248520    2.34928181372397    1.48708480866559
H         0.90850535705373    4.55890286995245    0.93740972320161
H         0.42849882503457    3.74117871438161    2.45629890542367
H         2.81986219958535    5.52510369306753    2.07294659200780
H         2.34399051711850    4.71742613989419    3.57577394995294
H         3.69156302766444    2.76516325271976    2.95711546392865
H         4.17016265284055    3.57638078052422    1.44960445527783
H        -3.15757556777521    4.72525466883488   -0.92224797443846
H        -3.00573906479031    4.53569001153746   -2.67963969767468
H        -3.59409748510148    3.19065641554190   -1.68520795084458
H        -1.58293285726234    1.52645678659325   -2.94212152696477
H        -1.17289042333306    2.97630016449110   -3.89317337889668
H         0.09684080145599    2.08333711488754   -3.01108860314779
H         0.84442843496792    4.65715454535574   -1.90090435838772
H        -0.49951843131466    5.31354493426466   -2.86448539524990
H        -0.38112214295881    5.68690314395735   -1.13053274379298
H        -2.68921830211501    1.59293326800885    4.07017463970865
H        -0.93997602846365    1.61060728699175    3.74561699245447
H        -1.87539269313664    3.11810408061738    3.65678480368707
H        -3.18640460948967   -0.38851928419351    2.40136235873062
H        -2.75855111117694   -0.39484423097943    0.67173263600504
H        -1.48355679105790   -0.55289588537068    1.89089725629009
H        -3.91996060633748    3.43363444862162    1.56712039858958
H        -4.28638284113987    2.06690952981343    0.50641278209181
H        -4.56139309872405    1.92843224228183    2.25278992398925

