21
CSD_code = LALNUJ | q = -1 | S = 0 | Stoichiometry = C8H2AuN2O4S4(1-) | MND = 4
Au        4.03579238422498    5.59148466023325    2.70871729408769
S         4.33337707637496    4.60489418765972    4.83286111430292
S         4.62418342270897    7.72199463941966    3.53923830857191
S         3.74807764861292    6.57629895862043    0.58196310100615
S         3.44416183122598    3.46182987090871    1.87863035193757
O         5.16919119623160    5.19469919694976    7.96547780568080
O         5.55737165261493    9.38304803150634    6.22811549349598
O         2.94608651479578    5.97991617299495   -2.55832649564887
O         2.53527030340780    1.79596974734850   -0.81555401576710
C         4.80045388670009    6.02287731407011    5.69676933017077
C         4.91686679944159    7.27192538725340    5.17844324566077
C         5.33842923898209    8.20002138365055    6.24559537046301
C         5.13995349563228    6.06243283578181    7.13241923505271
C         3.16702441126126    3.90882565869639    0.23590770816086
C         3.28891230206874    5.15680178724874   -0.28372007862995
C         2.96520973161255    5.11416298084436   -1.72291939340783
C         2.75589337294100    2.97867733245282   -0.83352784789094
N         5.44856528513587    7.39733494744023    7.37731402636436
H         5.72425167949483    7.74723171396938    8.28243534891230
N         2.65895820728275    3.77878968708635   -1.96826541564582
H         2.39306955924908    3.42698350586429   -2.87557448687730

