35
CSD_code = LALNIV | q = 0 | S = 0 | Stoichiometry = C6H18N2O6P2Pt | MND = 4
Pt        1.09616444508505    3.52743588972123    3.31902744740833
P         2.57389297959893    4.38572332322082    4.82418625897337
P         0.29063361525946    5.42117886728474    2.34372979736131
O        -0.16597350146233    2.46803084580547    2.02986817129087
O        -1.58094465773839    3.44287209481769    3.30126968367307
O        -2.24313243434300    2.07438800651185    1.80054502582257
O         1.63872622435121    1.63993238865503    4.04083286267800
O         3.29408356013429    0.30937911908634    3.93249922825031
O         3.44059598415526    2.25882093201770    3.07168566106043
N        -1.36743389318728    2.64656655937416    2.38974449988831
N         2.81850327745385    1.37789732685046    3.66138653524154
C         4.16674222554359    5.02497694440811    4.20189615174919
C         3.09060854179075    3.22949726764171    6.14322543386601
C         1.93469119525962    5.78502762080114    5.82671461560424
C         1.57222553223112    6.63845575689207    1.84642553372598
C        -0.57066916019541    5.16282737560737    0.75148207085743
C        -0.89686642683977    6.44022082684147    3.28406102162786
H         4.64198522819935    4.24360303783777    3.61456589830519
H         4.00736177766083    5.89312636251584    3.56898163569858
H         4.80087927937225    5.29665948023015    5.04426987051485
H         2.22065116406957    2.69926518149742    6.52845430709839
H         3.80360020698950    2.50364813764993    5.75787317852414
H         3.56222578960529    3.79100537083232    6.94932714439544
H         2.65593435269516    6.06191822950588    6.59337477555626
H         1.74391894200795    6.64564844005372    5.19096176268696
H         1.00245903958002    5.48431149970073    6.29987216557304
H         2.06963049426155    7.03946409724325    2.72564406371371
H         2.31031956690212    6.13948915846800    1.22221110598241
H         1.12117672665774    7.45684010040326    1.28844700732267
H        -0.66794139121518    6.11800580652105    0.23615452788778
H        -0.00013457123319    4.47129676107329    0.13296675823014
H        -1.56399406187302    4.75085711480823    0.91650726621832
H        -0.42272182122322    6.86045026326784    4.16625943878285
H        -1.26643433566722    7.24328906638519    2.64843801107428
H        -1.72036389383708    5.80339074649221    3.59661108334043

