62
CSD_code = LALPUJ | q = 1 | S = 0 | Stoichiometry = C29H29NOPRu(1+) | MND = 8
Ru        3.05612918966684    3.97398953329756    2.65016053184544
C         3.69595495945039    6.01065372436750    2.00297671890780
C         2.27695208927916    5.96699971208256    1.97616088683780
C         1.81458823023849    5.70719546680497    3.28728302292605
C         2.95499556491338    5.64536098849025    4.14588914554556
C         4.10879425176312    5.82854400577761    3.35790370034334
C         2.14997662955256    3.05887611961974    1.32063457023575
O         1.54267323420797    2.57469787526175    0.48344419699971
P         2.36907052418119    2.41172559288389    4.23613050280167
C         0.90012537002927    3.00623535650436    5.11326175332365
C        -0.27326425268775    3.13034968064149    4.36792639382882
C        -1.41869601798140    3.62091918297503    4.96364224877652
C        -1.39565854249341    4.00190686829251    6.29824123871254
C        -0.22770471933269    3.89270833556742    7.03487865966706
C         0.92488555533019    3.39870613705753    6.44679921652120
C         1.87713552458468    0.78099919236697    3.60117293688388
C         0.81524536641333    0.06089424139524    4.14093857961609
C         0.51380616421572   -1.19499982127553    3.64345468591008
C         1.26752033336639   -1.73914533409540    2.61676367482522
C         2.32929691923027   -1.02651949062819    2.08067559832828
C         2.63443710810946    0.22977123586030    2.56973195406855
C         3.56818848778540    1.98525996344335    5.53377977448007
C         3.27056992201559    0.97337723053399    6.44483716235742
C         4.17993444978426    0.65218297785109    7.43504529180453
C         5.38661250600144    1.33073226501863    7.52087302477441
C         5.68660787810367    2.33350874817761    6.61343074728997
C         4.77984446005757    2.66129124823984    5.62065231625607
N         5.70362937037155    2.50829047784215    2.08400263546273
C         4.66904407695074    2.99945434812382    2.28532680559979
C         6.90522716483920    1.79502266243885    1.86941782670959
C         7.78081303924874    2.61761521126176    0.92281260511948
C         6.53571138356511    0.44611337719324    1.24725088557258
C         7.58206544102613    1.60600066366096    3.22916723479336
H         4.33296064129980    6.33037356599795    1.18919277907544
H         1.65686356274219    6.19702345183397    1.11963588231926
H         0.78772788514595    5.77737221822303    3.62008124927060
H         2.92174872931094    5.62209903025771    5.22837519394576
H         5.11392748912030    5.98154134238052    3.73010998277597
H        -0.27242388868656    2.83109939065826    3.32561890841513
H        -2.32961337773385    3.70850054549172    4.39121736133721
H        -2.29002463441454    4.38828654867768    6.76194927059904
H        -0.21171050704972    4.19506819550679    8.07087342895244
H         1.83708375680902    3.31211733356341    7.02116560772420
H         0.21736192912956    0.48458485928393    4.93583453290535
H        -0.31437582097915   -1.74871325709605    4.05862370549794
H         1.02535398220185   -2.71691672978755    2.23041725766190
H         2.91333681323195   -1.44911773899819    1.27737790291844
H         3.45553336732209    0.80341455481880    2.15190138923914
H         2.33067713489290    0.44471245116030    6.37311486056266
H         3.94835254719516   -0.12919469754296    8.14237608548809
H         6.09360257629874    1.07602885435835    8.29510267799201
H         6.62673289801683    2.85988613300699    6.68111485782093
H         5.00792590650067    3.44238084564731    4.90382290459045
H         8.71382163096393    2.09253284602444    0.74120774946784
H         8.00881110502908    3.58840903062761    1.35647702740274
H         7.27686092106019    2.77013290512253   -0.02847580004820
H         7.44142109971064   -0.11591881427172    1.03930332193555
H         5.99496618865234    0.59034807837859    0.31474364848914
H         5.91536997670320   -0.13249512731043    1.92828469322077
H         8.49432498830838    1.03070096099624    3.10272086021647
H         6.92422767334736    1.07425269787160    3.91365552494257
H         7.83764376413012    2.56787274811454    3.66701060811429

