65
CSD_code = LALRAS | q = 0 | S = 0 | Stoichiometry = C26H30N4NiO4 | MND = 4
Ni        0.00053025186004    5.75427761560289   -0.00001478106801
O        -0.18229050156294    5.42646346424086    1.87092367820447
O         0.97091136560693    9.79218396440970   -3.63190445429681
N         1.19404663158215    8.28907305077922   -0.48312424202762
N         0.97463341433661    7.33394417731062    0.31283539123954
C        -0.18601289466971    4.32087029804952    3.94232276347893
H         0.14462925005197    5.30431828430446    4.26971678938535
H         0.55752540599923    3.56879948854924    4.19570059951418
H        -1.10483107476471    4.03715163022580    4.44991474835852
C        -0.39626211485551    4.34471423397981    2.46043020201344
C         0.87751469069285    8.32901892545741   -1.77400798618768
C         1.15658090091594    9.60305943589468   -2.44528666612524
C         1.67786585837308   10.70025132517417   -1.54549823858688
H         2.03406801307464   11.52487030083423   -2.15680407761255
H         2.47274350888446   10.32839535696760   -0.90632998267467
H         0.86742738204199   11.05494733854118   -0.91198126232923
C         1.54184611262265    7.47187445139205    1.60708803708586
C         1.06918451586894    8.44667052599506    2.48921276773653
C         1.63344904946123    8.52069584763017    3.75402061825906
H         1.27463726714455    9.26613864682045    4.44862659526743
C         2.63743645138215    7.64920920870675    4.13641921226555
H         3.06308656013727    7.71830339876873    5.12630853276345
C         3.08795965411560    6.68016238195417    3.25751577533758
H         3.86382079915428    5.99310421140159    3.56202526595038
C         2.54842107313295    6.57558498816559    1.98524749721593
C        -0.04449194808441    9.35917200163105    2.07754862684346
H        -0.42287105196855    9.91338614330164    2.93231411551541
H        -0.85967269115567    8.78089882087653    1.64155658409979
H         0.30167723461210   10.06849857565647    1.32727081420235
C         3.02530329132572    5.53111544285929    1.01937555661069
H         3.55934626990147    4.73891793775283    1.53784142564155
H         3.69220233983858    5.97421166327783    0.27847303025146
H         2.17228086606238    5.08493093078118    0.47564822652622
O         0.18216974367465    6.08281187194205   -1.87092706206679
O        -0.97239612775722    1.71759367166754    3.63216646941076
N        -1.19410163702804    3.22014185786770    0.48321808422001
N        -0.97446564102416    4.17513431090705   -0.31281595140889
C         0.18548088099569    7.18855085261409   -3.94220144475134
H        -0.14539056614524    6.20515885793839   -4.26956101894272
H        -0.55792560244784    7.94076584196937   -4.19552821657067
H         1.10432907632318    7.47205680136414   -4.44988184749041
C         0.39569779117167    7.16473874665336   -2.46029419560703
C        -0.87794339603332    3.18038575271032    1.77417951126351
C        -1.15769194230839    1.90653077571227    2.44553261596661
C        -1.67925611054943    0.80915765315437    1.54601831659408
H        -2.03437476774300   -0.01619864090885    2.15701688387542
H        -2.47508270188152    1.18087038532694    0.90800541247068
H        -0.86952708888405    0.45536290535511    0.91115015299406
C        -1.54133338972955    4.03695410212022   -1.60719880003114
C        -1.06800571721163    3.06241009168309   -2.48927614231625
C        -1.63197655478989    2.98814244531059   -3.75420395887488
H        -1.27255963953046    2.24300296113554   -4.44882884034048
C        -2.63639523101576    3.85907930450612   -4.13672583102406
H        -3.06182301347376    3.78980443697461   -5.12669915732081
C        -3.08761564425454    4.82784104734000   -3.25786156033089
H        -3.86384067248266    5.51444724048002   -3.56246134825311
C        -2.54833978293785    4.93270242732089   -1.98550338912895
C         0.04616420854850    2.15057037317789   -2.07749076389360
H         0.42481362495862    1.59638606227869   -2.93215885902195
H         0.86104472775693    2.72940284725902   -1.64167176709509
H        -0.29958748733362    1.44121774764992   -1.32704330183401
C        -3.02605386384088    5.97678621277185   -1.01962552944592
H        -3.56062851307324    6.76859221101501   -1.53811826769620
H        -3.69265197331257    5.53321286467735   -0.27873380251548
H        -2.17342886976053    6.42367191272931   -0.47586155369450

