30
CSD_code = LALSEY | q = 1 | S = 0 | Stoichiometry = C8H15N3O3Re(1+) | MND = 6
C        14.66278915730461   -0.53586564021249    1.68986069229815
C        13.30643832102051   -0.56231885193478    4.10528556042297
C        15.75475289735994    0.71718559399937    3.90610071834058
C        11.85908793819966    2.53566421421250    1.28772897213540
H        10.78353846203578    2.72566930337596    1.19644278488155
H        12.27288395311527    2.55153689634548    0.27548864211074
C        12.28762829758442    3.45962852212200    3.61902140539571
H        12.32333668322268    4.43313584348649    4.12114518308458
H        11.28733870140685    3.05062959356641    3.78693409293586
C        13.98790159681384    3.84282597892698    1.76597409341339
H        14.07331807945758    4.41906476649824    0.83753254976410
H        14.46942762839114    4.43136438245169    2.55207162614508
C        12.48822322160310    3.68703631180363    2.10391990283032
C        11.77568029471082    4.98803863572888    1.71947781268211
H        11.76503797364198    5.11615950872159    0.63998735211527
H        12.27845955329297    5.84615166941551    2.15836501992377
H        10.74687441584763    4.98104306120442    2.07077882426025
N        13.28607713903591    2.54920605493349    4.21399387891774
H        12.92704270566718    2.22257991187216    5.11280823482956
H        14.11796311938170    3.09490540768557    4.44841098286444
N        14.69578889603788    2.55476084022944    1.62630222619475
H        15.69927474632772    2.72994185437781    1.70331886317180
H        14.56268674601187    2.21731677074559    0.67068209301582
N        12.08701415261792    1.20297566063076    1.88037149771931
H        11.91142106402825    0.49809725952503    1.16228529176291
H        11.36766397063576    1.03921978481082    2.58776487309148
O        15.00648555737579   -1.31635006342708    0.93519512505363
O        12.85112599961229   -1.35585142150298    4.78335758201094
O        16.74849445970715    0.67942041496398    4.46102086626979
Re       14.05234426855183    0.82822773544346    2.95077325235797

