30
CSD_code = LALSAU | q = 1 | S = 0 | Stoichiometry = C8H15N3O3Re(1+) | MND = 6
C         1.59284218585276    2.28169982995607    8.25782392619826
C         2.87117990938941    4.71163412410766    7.88200008500308
C         3.05133371512836    3.41585502174326   10.32346074050979
C        -1.44415261484181    5.09706482912011    8.80944170826608
H        -2.04467688103421    4.18523147464913    8.87256246779523
H        -2.04819030561456    5.84172797090259    8.27856938321045
C        -0.00179341415237    6.62516077049737   10.24346806093197
H        -0.07320853657657    7.25784580428814    9.35426379364426
H        -0.11561866210136    7.28213023091818   11.11330763849298
C        -0.89836494254338    4.44927514346501   11.20839980239153
H        -0.41563463193577    4.84103811594567   12.10813023950842
H        -1.85989673498845    4.02551657514936   11.51989775046261
C        -1.17497568429848    5.61972932295282   10.23836119019996
C        -2.43137105748020    6.35186950876387   10.72185995751273
H        -2.58243975333583    7.26936986306470   10.15862022298097
H        -2.34483433601632    6.60975460180624   11.77442929975326
H        -3.31230751475998    5.72727447973199   10.59646176306642
N        -0.21277560646719    4.81097484013072    8.04676809171430
H         0.11123624573209    5.68289576723516    7.62303436761275
H        -0.45697486236316    4.21248340185083    7.25587466128594
N         1.32575616152860    5.97927456181573   10.27049162747540
H         1.56233189443102    5.77308263277843   11.24327579988774
H         2.02232127341192    6.66481430297356    9.97310178837928
N        -0.04707688120070    3.39273866444106   10.62642714179528
H        -0.64492916456421    2.75532719429329   10.09625535986480
H         0.32631197885878    2.82510417005003   11.38922196835710
O         1.56832188459388    1.27630713850926    7.72327350689008
O         3.60740358142745    5.14476640610392    7.12883936034431
O         3.89233056943192    3.08059157425417   11.01425622818334
Re        1.58405218448845    4.00846167850163    9.17502206828165

