47
CSD_code = LALTAV | q = 1 | S = 0 | Stoichiometry = C21H17N4O4Zn(1+) | MND = 5
Zn        4.74901367828899    4.58418461342316    3.13678873719747
N         6.52430876388459    3.90452403015035    4.04290888707719
N         4.56669454909980    5.32881594186828    4.94005490943943
N         2.86310856676733    5.45855053521866    3.00285598596091
N         5.66725982515042    5.33242466048272    1.14270843693687
C         7.49783006952630    3.20637089136364    3.47687633713209
H         7.29407315084439    2.81740398397031    2.48814164970905
C         8.71744513577567    2.97937143629847    4.09661594540984
H         9.48430076653204    2.41189437331314    3.59560348585378
C         8.91946856490247    3.50291933316811    5.36321630507398
H         9.85411461331937    3.35060865758708    5.88035307660971
C         7.90218903573001    4.23353933098149    5.95775785363649
H         8.04252803567793    4.65267824756870    6.94007229275086
C         6.71038773741559    4.42418538119231    5.26623106481925
C         5.58439825114139    5.22033248703696    5.78756819311312
C         5.54132050606877    5.84618267197878    7.02558286719584
H         6.34854038889218    5.74942333882225    7.73212269623614
C         4.41602444178481    6.60378665613285    7.36813280543464
C         3.37677833184984    6.70915087205825    6.43760187579020
H         2.51998361316336    7.31913000952929    6.66995043063251
C         3.49017119468259    6.05645322482489    5.21761615847076
C         2.50737526316690    6.11008158147574    4.12017026785861
C         1.30006554062298    6.79572196712760    4.20307230633963
H         1.01979037927955    7.31248324290907    5.10578075540933
C         0.45532599861622    6.81175842808890    3.10377472489357
H        -0.48348526332297    7.34193045128302    3.14641213942417
C         0.83843364679867    6.14073152816909    1.95426680007933
H         0.21429692574615    6.13250900851601    1.07584892029133
C         2.05470660740605    5.47407897780684    1.95438994653497
H         2.39471145964052    4.93619462493575    1.07989208198105
C         4.33399175225549    7.28158387024708    8.66257141545470
C         5.46141729803231    7.89031536688206    9.21589166775314
H         6.39383647119808    7.88953362081833    8.67110976596879
C         5.37818756044543    8.53864001097905   10.43324942344317
H         6.25257212667722    9.01834758996173   10.84521512505359
C         4.17661798843149    8.57464223771725   11.12286526627931
H         4.11548356829803    9.07612291384854   12.07602342348958
C         3.05333155646472    7.96624230147187   10.58540184491304
H         2.11779504922058    7.98744154526152   11.12271394186932
C         3.12639170397847    7.33117760019207    9.36047657894280
H         2.25360129056191    6.83824431626133    8.95831519899196
O         5.13428896638039    4.20206890210087    1.26776820390404
O         5.67702365572081    6.04828335971625    2.15883845199510
O         6.13210945939438    5.68235304428540    0.10941087515359
O         3.81057904705287    2.62127747730485    3.21790159172133
H         3.63708662376604    2.35903575575589    2.30657169270934
H         4.22172610367016    1.86536959991391    3.64810759506504

