50
CSD_code = LALVAW | q = 0 | S = 0 | Stoichiometry = C23H18MoN4O3S | MND = 6
Mo        0.58818128742723    1.80650531319457    3.11939239192726
S         1.79404761338098   -0.03851367345268    2.05038844107857
O         0.04590256940719    2.29948742556782    1.64782800262466
O         1.93353716270404    2.60580461276480    3.62571594693988
O        -0.76347699618221    2.37632957351990    4.28609745322653
N         0.92248186751691    0.44273559490015    4.79296522909005
N         1.66906592232710   -0.68442239973687    4.66729546722637
N        -1.18874263997588    0.13260646633834    2.84794720284947
N         2.91063855421092   -2.05828515065547    3.27700461083723
H         3.21469879230140   -2.14052638534268    2.31502934971661
C         0.74483667202616    0.80240386782887    6.03078013995382
H         1.22357942556736    0.16543221453754    6.77162931657126
C         2.12762905360615   -0.97943648112786    3.49880250961253
C         3.44553241333703   -2.98971860054897    4.16125969688307
C         3.13472676790628   -3.02363594806925    5.51780721278282
H         2.45107463909744   -2.29329266393486    5.91371271229780
C         3.70722999536723   -3.98372499185960    6.33213695154715
H         3.46255743592164   -4.00023785809663    7.38398301129689
C         4.58597921711889   -4.92000710634225    5.81425906815167
H         5.02868314771779   -5.66581337610724    6.45661401372366
C         4.89372122133243   -4.89175229141155    4.46363590923673
H         5.57840893828166   -5.61641447462877    4.04885764918205
C         4.32990219200475   -3.93615678891726    3.64159057297310
H         4.57394245541041   -3.91369204577735    2.58903216090537
C        -0.74107753757408    2.69059194011264    5.55514326984092
C        -1.52135772294264    3.78975658815206    5.99426827918496
H        -2.06741925992344    4.33984990450373    5.24036701914639
C        -1.55474676979550    4.13382814355401    7.30920303027352
H        -2.14349673695084    4.97787209662433    7.63850162928537
C        -0.82049633302534    3.40516905496062    8.27569232735122
C        -0.03259008570558    2.29394906985547    7.87308491008560
C        -0.00142277502474    1.92773230630271    6.48193903678886
C        -0.86209870899207    3.78237793744692    9.63130684667957
H        -1.46913741952461    4.63158152070156    9.91000871621004
C        -0.14885127946360    3.09704487524650   10.57630593541314
H        -0.18294999085590    3.39224906622613   11.61403906405646
C         0.63583778494242    2.00784407424771   10.18649235799198
H         1.20646714155408    1.47028134995736   10.92937197996151
C         0.69311862327490    1.61831917718130    8.87293153418109
H         1.32169794403178    0.78085750670952    8.61712239944133
C        -2.05889027360168   -0.20378940852600    3.79619099139653
H        -1.76622170794608    0.00109299506053    4.82040143246790
C        -3.28282103048634   -0.79315774239191    3.52648995719733
H        -3.95248613835745   -1.04273160078962    4.33450962052326
C        -3.62329731672016   -1.04689113362204    2.20715024995829
H        -4.57241812686719   -1.49821841884294    1.95890803762850
C        -2.71461249487349   -0.70835937873314    1.21801912807936
H        -2.93031253096952   -0.88842462630762    0.17705324959312
C        -1.51254377506937   -0.12349841435840    1.58370693032419
H        -0.78041118702579    0.16529828409203    0.84002704625844

