75
CSD_code = LALXUS | q = 0 | S = 0 | Stoichiometry = C38H24F10P2Pt | MND = 4
Pt        7.16100544620667    2.89717366870511    5.54442794242478
P         9.40784010180825    2.59456133853497    5.16582015967181
P         7.82848254682368    3.21989486963007    7.71977380144246
C        10.28405338639267    2.43686132998026    6.79247641370998
H        10.12718636216803    1.42118716665168    7.16988373847378
H        11.35749822985087    2.60553169913689    6.66069646053268
C         9.66813241338997    3.44586330174465    7.75794382949472
H         9.89425233907869    4.46400564351603    7.42446152398450
H        10.04543708299444    3.31287020992123    8.77677137052615
C         7.14089931037564    4.37277872611969    8.93258746960429
C         7.74857848940540    5.57204177647213    9.28316385564487
H         8.72298478691391    5.82489563976435    8.89198914487012
C         7.09598774205544    6.44986261481971   10.13096472494931
H         7.56939229544365    7.38110649626652   10.40432583858278
C         5.83528594039391    6.14639348816046   10.61684055984507
H         5.32625447929141    6.84088832474311   11.26758130919802
C         5.21993685607906    4.95708357234828   10.25804756266362
H         4.23278102110999    4.72375959442060   10.62792022654575
C         5.86703041878313    4.07521057709879    9.41512484967609
H         5.39253210169057    3.14724111615077    9.11932418034832
C         7.65148995253342    1.60388283895129    8.52481600583175
C         7.95025157520643    1.41199108814413    9.87008183636396
H         8.26499676182501    2.25113731799058   10.47647835494774
C         7.82741526238484    0.15186866776434   10.42504579565701
H         8.05532894741492   -0.00008886684177   11.46980615362922
C         7.40918068855168   -0.91529362414131    9.64373789296112
H         7.31413502699689   -1.89652719734032   10.08423960106678
C         7.10775982765430   -0.72556463838207    8.30479765542945
H         6.77765997235374   -1.55420607481043    7.69743856977823
C         7.22657495566166    0.53337691286322    7.74385094720224
H         6.98101712377198    0.69656918492510    6.69498618926149
C        10.02349900130708    4.19839385868393    4.58391285858376
C         9.12591108281412    5.26096856281086    4.54260670123903
H         8.08611803834278    5.09815441536337    4.82405162838425
C         9.55516936294886    6.51119871908585    4.13466927260249
H         8.85704221465319    7.33343343974708    4.10166625461790
C        10.87700237105932    6.69996346483395    3.76503424098389
H        11.21300056614835    7.67392253290925    3.44188331438822
C        11.77206975974600    5.64083449077562    3.80154024289035
H        12.80012601442615    5.79195066858148    3.50691214580601
C        11.35024393855131    4.38968538036025    4.21086130742604
H        12.04039197807695    3.55645676588621    4.23119669139180
C        10.18421182209917    1.40628975311513    4.04420109477965
C        10.05419059182500    1.66343755817419    2.67992947130334
H         9.58805543773731    2.58667442578354    2.35727873020283
C        10.51276021292825    0.74777458880926    1.75346578542002
H        10.40689787802245    0.94940788440255    0.69806379259128
C        11.09357609082904   -0.43584265426921    2.18169292193411
H        11.44209951482369   -1.15694329677391    1.45825419719505
C        11.21499491072866   -0.69925943136910    3.53572484387224
H        11.65851121956616   -1.62628868096213    3.86699999476126
C        10.75481446407292    0.21269310291016    4.46929595107465
H        10.83347934873457   -0.00970860117170    5.52322039875804
C         5.23810614465071    3.42172796522899    5.94284197588360
C         4.99075789293615    4.72223636112374    6.37000633876359
C         3.73553676803540    5.17900402671340    6.74249349430668
C         2.65433095175607    4.30695092486843    6.67999127360181
C         2.85206717383759    3.00009044083086    6.24816070779008
C         4.12972596911140    2.58490803333126    5.89297218403246
C         6.66314671929857    2.36407287198335    3.64689888782843
C         6.12999999986720    3.20192369726517    2.67476387793641
C         5.88031501355275    2.78696086761826    1.37245018452465
C         6.17450110130929    1.47860692256820    1.00476653894972
C         6.70627011110714    0.60530010762105    1.94701296660391
C         6.93127818350984    1.06219209391338    3.23690904602064
F         6.04232016981913    5.57136960511852    6.44958892454768
F         3.55945927107986    6.43563665146978    7.17806446834590
F         1.43310604993271    4.71931542968574    7.04630284002353
F         1.81441924297940    2.15273963608809    6.19389161481072
F         4.30650092462723    1.30769171703234    5.49480091454736
F         5.85652691888449    4.48064267640403    3.00895466764577
F         5.37517955238841    3.63585257877535    0.46576079186888
F         5.96000531530873    1.06628801252826   -0.25207204475426
F         7.01318971924895   -0.65305975148337    1.59730878014831
F         7.46482954278140    0.21129541999841    4.14436576196452

