68
CSD_code = LALYIH | q = 0 | S = 0 | Stoichiometry = C33H26ClF5P2Pt | MND = 4
Pt       10.83200842393258    3.33298854307816    1.19138143877792
Cl       12.52352474088517    4.75489940424195    1.83190485062911
P         9.26199367947207    1.81124706160177    0.57851700554010
P        10.94956147878682    4.13901298772914   -0.95825219665536
C         8.02539365923434    2.34846864507978   -0.67921718532435
H         7.32417672601990    1.52358303305985   -0.84133194689374
H         7.46883579717326    3.19351189608091   -0.26424141566376
C         8.67909244776289    2.75155684170019   -2.00184034796139
H         9.38833523283227    1.97443503938078   -2.30248469651821
H         7.89977862344619    2.80300665969333   -2.76885354854628
C         9.38331792732374    4.10771751884231   -1.94296896559059
H         8.72145092625212    4.84924324780036   -1.48214747636766
H         9.61459522144718    4.46293036801861   -2.95245076250708
C         8.28588130712448    1.03474512085281    1.89259412223623
C         7.09482168481475    1.59832719191195    2.33975204354489
H         6.66909828268480    2.44628325800318    1.82378635256089
C         6.46813401240915    1.08863044339607    3.46265254872260
H         5.54871857031983    1.53377843939897    3.81180868250184
C         7.02822981885405    0.02492294654284    4.15089205178353
H         6.54455482368606   -0.35925167570031    5.03596203976511
C         8.21588193573125   -0.53806269187497    3.71071877719908
H         8.65585095414781   -1.36406618626707    4.24916927344160
C         8.84713844641143   -0.03325443671473    2.58980144521740
H         9.78144608298540   -0.45887692029774    2.24888012441726
C        10.12252807610749    0.43547341924807   -0.23416668902365
C         9.44948082850118   -0.60461803169999   -0.86742259108147
H         8.36896919829047   -0.64057697734808   -0.85024661265673
C        10.16860566811580   -1.59633526291963   -1.50865592974710
H         9.64781212507445   -2.40433953559263   -2.00114662243854
C        11.55478433231299   -1.55583360832617   -1.52074246905849
H        12.10919011695373   -2.33024024626291   -2.02940534188138
C        12.22815631286537   -0.53261617559634   -0.87375506112073
H        13.30701615057592   -0.50647553299923   -0.87106627263157
C        11.51370072386873    0.45935017954849   -0.22769739688686
H        12.02819256786847    1.25898842353685    0.30213662302049
C        11.35105981944145    5.90022622936995   -1.10341125834883
C        10.77623028432641    6.74555950917632   -0.15923407025660
H        10.16064561601054    6.31978071498038    0.62593436742370
C        11.02161583966175    8.10379448620852   -0.20909796902705
H        10.58415314063173    8.76035062268581    0.52805989760382
C        11.84403113709550    8.61942755539155   -1.19897763572772
H        12.04483482757852    9.68001444838755   -1.23363138241841
C        12.41975854475183    7.77817979589879   -2.13660318146295
H        13.06666848303230    8.18315078262324   -2.90108686518384
C        12.17605638036499    6.41645140284266   -2.09351055063228
H        12.63323204089700    5.75477539029506   -2.81657373600352
C        12.19691045634899    3.29068412229516   -1.96669099104555
C        13.43413571410772    3.12706440366186   -1.34274648378940
H        13.57789171281310    3.53426126282450   -0.34887370697639
C        14.45549114947419    2.45568159926302   -1.98570829492620
H        15.41165052599695    2.33508271570920   -1.49896740114793
C        14.24727288261537    1.93089781800109   -3.25206499789174
H        15.04060657341499    1.39792935179127   -3.75500336234490
C        13.02085491065090    2.08996999456316   -3.87440880464328
H        12.85974127757757    1.68364652862399   -4.86247871239878
C        11.99509484050341    2.76867947192779   -3.23848776650153
H        11.04780318511039    2.88875170371482   -3.74301242621124
C        10.68496722524457    2.69529812658683    3.10923662111611
C         9.61273622513890    3.17228025503907    3.85257108180416
C         9.33185008639370    2.75444266303116    5.14365190267436
C        10.16392132677574    1.81404013539527    5.74027700317811
C        11.25045926233166    1.31202627824212    5.03441979450300
C        11.48879617168341    1.75611304659813    3.73943350550530
F         8.77701080432451    4.05183696937268    3.24826910688254
F         8.25912054465197    3.21684041974449    5.80637890492439
F         9.90192908297420    1.37257647414755    6.97999256500544
F        12.03555264323383    0.38006379219403    5.59806278406942
F        12.51496038051209    1.21626854223945    3.05051821137982

