65
CSD_code = LAMBEG | q = 0 | S = 0 | Stoichiometry = C24H33O3P3PtS | MND = 4
Pt       -0.00898120247376    0.52859235352903    3.98439150828690
P         0.26618829382777    3.09324258219213    3.90382779128498
C         0.74909193772327    4.51115875379783    2.82576200489293
C        -0.95301844938595    3.97128933144045    4.97531120633052
C         1.64375218014313    2.98786728260504    5.09695743133815
C         2.83507060226516    3.69480750042889    5.00720144269553
C         3.83058363256888    3.50264981434108    5.95221532772660
C         3.64798497165143    2.60358797757161    6.98907117222419
C         2.46659390125490    1.88181900295421    7.07706251995325
C         1.47423543306348    2.06791982883419    6.13432645088490
P         2.10141044947131   -0.00440555277816    3.23444211478774
C         3.61449479382670   -0.07085388793161    4.25598608311333
C         2.24013632358698   -1.52691310900889    2.23450997633485
C         2.51812676939264    1.23313669024897    1.95020126225222
C         1.51272986130049    1.46645243762397    1.01480561303334
C         1.68450726222586    2.38720952922181    0.00064955017744
C         2.86744032730234    3.10768489804715   -0.07856326873479
C         3.86453774939757    2.89842113248047    0.85830665842886
C         3.69337837757577    1.96472538268260    1.86861138564227
P        -2.25235140535629    0.39207144034742    4.46498247184352
C        -3.13199726878355   -1.05567032179567    3.78494166982180
C        -2.97001862476589    0.54934935006810    6.14136996082295
C        -3.09488235537170    1.71185414767218    3.51204849571945
C        -4.20399278613306    2.43557755228170    3.92482349853100
C        -4.73240942442918    3.42581369681515    3.11230714729190
C        -4.16145954362248    3.69961653851826    1.88139226168433
C        -3.05688156843972    2.97682072202431    1.45729064663867
C        -2.52869658977696    1.99466034919062    2.27211125549620
S        -0.00344298202724   -1.60177858921689    4.66497173112766
O        -0.96313990708211   -1.56722228501879    5.75913066115586
O         1.37834216728582   -1.79196056471423    5.07725790642043
O        -0.41524675068215   -2.33747842282498    3.49254352006112
H         0.97740635633267    5.39684084520971    3.41607260013482
H         1.60197622401475    4.23647255701093    2.20992105428029
H        -0.09361925199681    4.72416297256518    2.16992795756936
H        -0.50560107591300    4.86441740623442    5.40993654230843
H        -1.81865529398009    4.24692333271530    4.37587082910106
H        -1.27651711924924    3.30226483403889    5.76916538992824
H         2.99932906810319    4.38807063974789    4.19628478779337
H         4.75546758651334    4.05647939171725    5.87458597630329
H         4.42830943332236    2.45748996906422    7.72131946523384
H         2.32597026192863    1.16614235754152    7.87268516840529
H         0.55015887608463    1.49063542973709    6.19802485424395
H         4.45971553528438   -0.35328111183556    3.62828859389697
H         3.79942663380561    0.89208517154966    4.72646429897876
H         3.45410138916348   -0.82361365358906    5.02269664148503
H         3.20912943925306   -1.55082064448344    1.73344693325625
H         2.12650712847717   -2.37771905473248    2.90062226978989
H         1.43952615752989   -1.55944035257088    1.49800703283238
H         0.58940774941498    0.90172471473385    1.10144963129295
H         0.90157974511154    2.55312720991542   -0.72494999452896
H         3.00807078849560    3.83478492759159   -0.86504731383462
H         4.78317688782410    3.46531360335280    0.80269028933357
H         4.48085657285467    1.81572259935366    2.59161898133356
H        -4.20894959722484   -0.90220109506933    3.86897637787567
H        -2.85494971180144   -1.18663711000158    2.74037915181836
H        -2.81802954585775   -1.93720484869706    4.33656962653617
H        -4.04073985656825    0.35258670048076    6.10322590903319
H        -2.48689096383627   -0.19373614165665    6.77026561362205
H        -2.78974631868366    1.54535627529700    6.54212721678218
H        -4.66128644700710    2.23756769562330    4.88265471810279
H        -5.59428755278699    3.98766395796050    3.44305375754056
H        -4.57618691075570    4.47505605454860    1.25405316064592
H        -2.61024836540241    3.18561068931750    0.49595749764447
H        -1.66009399797573    1.41990911569746    1.96120752402597

