33
CSD_code = LAMDUY | q = 0 | S = 0 | Stoichiometry = C8H16Cl2N2O4Pt | MND = 6
C         6.74780928480618    2.00761284713837    4.30745145257060
C         6.56291304224960    2.63091162735666    5.72129604785535
H         7.31496704465616    2.22075102868352    6.40263988217032
H         6.73767665661170    3.70529413252123    5.60759603083377
C         5.09226280632299    1.02304488363505    6.72368993942100
H         4.06400979640862    0.81533217850807    7.02017493609059
H         5.75119818595429    0.87962717732088    7.58529707297208
H         5.37288808595563    0.31865721839040    5.94074161999075
C         4.90181020793617    3.33133876516009    7.32421001952117
H         4.90749474674503    4.35769630204749    6.95720111061560
H         5.64965451368676    3.23111809574967    8.11587879885432
H         3.91749004420503    3.11345509709362    7.73696407287167
C         2.46398821625365    0.31237055297334    3.68403928150242
C         1.81358981515818    1.53855612884487    2.98007413521608
H         1.38873278807369    1.22625829759887    2.02078766388744
H         1.00184759538121    1.87224141130060    3.63410173189514
C         3.65798744047499    2.32205366508417    1.66161714722707
H         4.13440951170824    1.35180927436393    1.80064157201528
H         4.43798714065441    3.07881657119203    1.57732009876790
H         3.07370361812207    2.30313628076763    0.73687202684103
C         2.09230054746983    3.89629743817645    2.55311606045624
H         1.49362828073389    4.17395613546985    3.42042127225154
H         1.43733734220901    3.79944908905892    1.68279505560901
H         2.81863627834691    4.68559426964601    2.36325443261671
Cl        2.05708641201926    3.14072197694959    5.76494933158262
Cl        4.61148273044203    4.81774100682528    4.39007330363215
N         5.20368510562666    2.40045904734492    6.23251919226430
N         2.78464914866345    2.62766121470157    2.79946324976298
O         5.68995786795855    2.00680900643093    3.58103251001502
O         7.82513455635840    1.60060857202615    3.95171964113510
O         3.38677531972267    0.60653116655903    4.52592037565035
O         2.07712923664574   -0.80535298960839    3.45211027466703
Pt        3.95777663243883    2.59434253068886    4.54693065923654

