20
CSD_code = LAMFAG | q = -1 | S = 0 | Stoichiometry = C4H8Cl4NO2Pt(1-) | MND = 6
C         1.89805967391013   10.23769100022030    7.01096734211978
C         1.00798198749913   10.06267609849182    5.74136069149599
H         0.34384047190926   10.92958783184967    5.63686389665207
H         1.69933214303291   10.03341406372911    4.89364544287745
C        -0.90533325712965    8.96982918258937    6.67115039505092
H        -1.41238224577286    8.01349376286358    6.79104919669071
H        -1.60338323546334    9.70599211867190    6.25324488756665
H        -0.57774248567667    9.30873428674273    7.65300234924116
C        -0.21279882490884    8.42888356063633    4.45131272072957
H         0.64759437613853    8.27706126769012    3.80019060872309
H        -0.85751740265380    9.20976567666407    4.03143209321823
H        -0.76562637594812    7.49216052417773    4.51389826562572
N         0.24568783972521    8.81156340395571    5.78549224329503
O         2.41461416951266    9.17052399558536    7.46861334960785
O         2.06791166206159   11.35278806199427    7.46408374684293
Cl        0.51778020536612    6.95328411636675    8.53432915690565
Cl        3.05487044809726    7.82755698089471    4.65674140408070
Cl        3.41942944058638    6.09955794096181    7.42551328748036
Cl        0.81771323380754    5.53743529909654    5.58737058187332
Pt        1.73366817590612    7.41090082681839    6.57763833992318

