51
CSD_code = LAMMER | q = 0 | S = 0 | Stoichiometry = C18H26Cl2N4W | MND = 6
W         9.58336675872259   -0.05620523683260   10.49370394521075
Cl        9.93240797799950   -2.34630665781013    9.80388331648201
Cl       10.06691802071446    1.80441042675342   11.95878001511498
N         9.87780028906630   -1.04902503804130   12.52257456650855
N        11.81626888424101   -0.36563365429641   10.81951556048572
C         8.89234350861593   -1.20711804660866   13.39709506676253
C         9.10347788751865   -1.51691326357262   14.72913236517973
C        10.41093911108082   -1.63550709402006   15.18374617696785
C        11.44311300485544   -1.48002810644630   14.28024245308524
C        11.14576991545789   -1.20572857549831   12.94340697680981
C        12.18072639499966   -1.04715603517760   11.92044002535637
C        13.46276592817709   -1.58467465854937   12.05573402378038
C        14.39117197564043   -1.37755057644679   11.05519758188061
C        14.01782339447645   -0.63371759529288    9.94273680898511
C        12.71772685325170   -0.16594352976001    9.86633571000540
N         7.80268464225484   -0.12740318904148   10.66783616381548
C         6.41326865142511   -0.15955124596109   10.44100065315644
C         6.16022410109884   -1.17729187440817    9.30920746414903
C         5.93739785539286    1.24240454636232   10.00861296745441
C         5.62221496676995   -0.58564431800588   11.69732462140689
N         9.88269136420953    0.77941651973932    8.93857158380781
C         9.78606454657009    1.58137658204174    7.78510222024288
C         9.30418275190783    2.97511675355370    8.23917090597256
C         8.76079482129607    0.95600781867099    6.81737684191181
C        11.13798876729767    1.72223963738850    7.05160935182773
H         7.89459862649590   -1.07547243863453   12.99996174786246
H         8.26627517955330   -1.64577625819844   15.39560469355891
H        10.61877457214429   -1.84255682668866   16.22253668701546
H        12.46881378816667   -1.54535687704538   14.60546038137301
H        13.71519968363127   -2.17486581801128   12.92179781342086
H        15.38585623649101   -1.78867798079630   11.13741983083096
H        14.71416299754664   -0.43415884192555    9.14461717938638
H        12.36874255604322    0.39329141679193    9.00837666673180
H         5.11687884107858   -1.16390638911252    9.00365899725303
H         6.42503633546620   -2.17642428166226    9.64972686057051
H         6.79897793800953   -0.93034962100638    8.46242801059198
H         4.86078483463388    1.25318286682387    9.85640023356610
H         6.43565018440696    1.52418179017615    9.08490527437448
H         6.20136974236619    1.96662178320710   10.77716625488715
H         4.55572488835876   -0.58274845207641   11.48473092514726
H         5.81599364645474    0.10833021279217   12.51355964788570
H         5.90868631019062   -1.59109448161266   12.00104261926266
H        10.06855608583053    3.44347193220314    8.85618789372767
H         8.40736082892379    2.85828764316951    8.84590236253174
H         9.09256879818365    3.60938620076258    7.38182727083434
H         8.68627440204391    1.54195895837120    5.90442439761956
H         7.78808833958005    0.91365148177397    7.30002528234922
H         9.06783225454187   -0.05898521231079    6.57177800881511
H        11.87039610332697    2.20199277836247    7.69859531069907
H        11.01638685855045    2.33270104879215    6.15990897852380
H        11.50517759493828    0.74144177714970    6.75401930481478

