48
CSD_code = LAMMIV | q = 1 | S = 0 | Stoichiometry = C18H22ClN6Ru(1+) | MND = 8
Ru        4.37242840008095    8.57751391921783    4.19084358591739
Cl        5.35028993970892   10.52621273977023    3.21474404663763
N         2.77273552238592    7.42580517340022    5.19400372071958
N         1.72157878941568    8.14804706944237    5.62815296916111
N         3.99576818106536    9.95596181180293    5.68485716075654
N         2.73154583726545   10.24570749693921    6.03329625402931
N         2.71281711786167    9.39437906358886    3.23857653398865
N         1.67027111140688    9.81822867892184    3.97504851593292
C         0.76078188544491    7.34985193539997    6.15374067968064
C         1.21664278251300    6.06286586800809    6.05849696521489
C         2.47284075756451    6.16559683848439    5.44672391628448
C         2.69566654897534   11.25198521416073    6.94207878327600
C         3.99437127607024   11.61275620847490    7.18275868739641
C         4.77046510184359   10.77535011874031    6.36907304581712
C         0.78383644355337   10.50562690492214    3.21245991301304
C         1.28605474890025   10.52057195311094    1.93894675487364
C         2.49676923453496    9.81695803779699    2.00791284654858
C         1.63780528685608    9.56661473998054    5.39314950825311
C         5.74664044645366    7.42713267512232    5.48952861871177
C         6.52146788959401    8.29206557355534    4.73705801582267
C         7.38929671616570    7.82416249086897    3.59171085457385
C         6.66651532779670    7.84973261021996    2.23286490652104
C         5.17453966588097    7.66146547936406    2.32660393506432
C         4.55337990147785    6.66658323560402    3.05810594194722
C         5.34129457403710    5.58261665155365    3.77369810434056
C         5.74479435139458    5.93928296097682    5.21974348083637
H        -0.15114353449032    7.74866297297120    6.54830750835001
H         0.72416856178203    5.16877690991455    6.37727665121193
H         3.13023547376782    5.36462776517166    5.18457294073568
H         1.77322604505026   11.62300437000276    7.33954767895088
H         4.34676223894458   12.37491874155709    7.84525032311151
H         5.83732421522210   10.76963118863355    6.26137538653395
H        -0.11407703905488   10.91999509920777    3.62279830603969
H         0.85411214842019   10.97571718535007    1.07294374489895
H         3.19739139120309    9.63766720466124    1.21633566201830
H         0.69225383294042    9.94263734928280    5.80421153884415
H         5.54608839315484    7.68928414630497    6.53207123920848
H         6.85984270930850    9.21633987720376    5.19826001473013
H         7.75326173444836    6.81944869237260    3.81405731809270
H         8.25850714525130    8.47845816811597    3.52519874364000
H         6.85017363185545    8.81477654299272    1.75984632362202
H         7.07454316204595    7.07779879686758    1.57219276385512
H         4.64053951359657    8.06746176751274    1.46879175891411
H         3.55487051978540    6.36497387111736    2.73279262951749
H         6.23406479638341    5.37659177055007    3.18084324673751
H         4.75400845715926    4.66216782002550    3.77774810256216
H         5.08398583026555    5.45100545094090    5.93620448756774
H         6.75116293471367    5.55847885981564    5.42389588553885

