47
CSD_code = LAMROI | q = 0 | S = 0 | Stoichiometry = C22H16Br2N2NiO4 | MND = 4
Ni        0.51035726868097    6.87625115843997    0.90280338766586
Br        3.23428985992200    2.24429854657131   -4.12660771521340
Br        0.23746518905259   11.48426121699542    6.63521917348259
O         2.05826435303100    6.06597276942741    0.32468476913549
O         4.51581221367558    5.24018344211004    0.01082435032551
O         1.53563529858467    7.68254482141014    2.20088507003208
O         3.47622989426437    8.50354727658273    3.74362488078592
N        -0.51879668582914    6.06386178190115   -0.41456982532638
N        -1.05095150074069    7.69194741637067    1.49594045484361
C        -1.86680080477970    6.43398230236919   -0.33200071937121
C        -2.16050748201436    7.32943544699163    0.72238187818876
C        -3.47245727284158    7.76657517446289    0.90445998506310
H        -3.73164696203058    8.44869149266307    1.69802680034029
C        -4.47362643430077    7.32821850896183    0.06049520067016
H        -5.48517880391494    7.67265983031461    0.21012988683822
C        -4.18534366439436    6.45163505585897   -0.97435316351231
H        -4.97232817650391    6.11387763195728   -1.63073602692936
C        -2.89378998505716    6.00525393223528   -1.17280641255272
H        -2.70493753113322    5.32447187179480   -1.98709940291314
C         1.22891564405325    4.79492568925449   -1.51034347246642
C         2.25785816797114    5.25633704170191   -0.63195867496966
C         3.60053812645367    4.76165425206745   -0.85964740201931
C         3.85656041497932    3.88728837695411   -1.88237690835024
H         4.85023482661541    3.51036131761928   -2.06437281538503
C         2.81168902361843    3.46190000852317   -2.72227253588234
C         1.53250070564155    3.89042037915622   -2.55787730450307
H         0.74461823453773    3.55161651240448   -3.21270830248332
C        -0.09623645785101    5.23560427258093   -1.33864681134807
H        -0.81161566339497    4.83397745033115   -2.05152642253980
C         5.85089626060011    4.81966529096852   -0.11696200209058
H         5.94480710688591    3.73574381536518    0.00796823815041
H         6.39437148718341    5.32282257492182    0.68051597409303
H         6.27372763964888    5.11132246210081   -1.08416054298557
C        -0.12364751114163    8.94967328627186    3.34625828672620
C         1.21135579188009    8.48893880289604    3.12560574214865
C         2.24240121737204    8.98024883430496    4.01716482623299
C         1.93195306342516    9.84986264007526    5.02881083432625
H         2.68796008458774   10.22391580880202    5.70047519596725
C         0.60306631606334   10.27380586930328    5.20887599202740
C        -0.40629848100546    9.84889621602732    4.40411649951789
H        -1.41939852530610   10.18678111945465    4.55839261044413
C        -1.16812409585539    8.51443729899573    2.50999711637377
H        -2.14920036728360    8.91540139728938    2.75080485763619
C         4.55256690764697    8.92119271571175    4.54532174332451
H         4.69644160023502   10.00555870841735    4.49229124407961
H         5.43055151378481    8.42083159960045    4.14120183176108
H         4.41471819498439    8.62424658148137    5.59034963066087

