30
CSD_code = LAMSUN | q = 0 | S = 0 | Stoichiometry = C7H18ClOP2Rh | MND = 4
Rh        3.37406963022400    6.18025340905155   17.36917428368124
P         3.99816985144723    4.98992120408881   15.53539848223820
P         3.10581946358511    7.56994529762198   19.14822738125395
Cl        5.28356488252249    7.27243321376201   17.06048950768225
C         1.80604220702207    5.28427621908386   17.62331437759271
O         0.81432414034053    4.71641693458775   17.78286790067929
C         2.96411029643340    3.60434426599834   14.91765972696708
C         4.19310853129798    5.98922706501977   14.01267604169039
C         5.63820765850977    4.18119162472030   15.63924695132550
C         3.18315533162927    9.36103573980869   18.77390535822897
C         4.40819231111873    7.42081623209151   20.42784092730310
C         1.58906812326116    7.49467535467502   20.18006373280025
H         2.86876485180346    2.85147257447967   15.69810163764513
H         3.40979593650291    3.15411695388120   14.03155364857657
H         1.97042557985396    3.97673385955227   14.67528401414824
H         4.90833994920173    6.78606021135269   14.20995511599463
H         3.23383765336826    6.43437792973412   13.75031879944695
H         4.54689307365073    5.36663408833951   13.19107576580076
H         6.38520551737335    4.93839222921247   15.87096268063853
H         5.88128684829942    3.69450496005744   14.69485145509385
H         5.62533194706856    3.44318525716822   16.44062300618922
H         4.12499724444296    9.57004363302703   18.26964767995732
H         3.11415180099649    9.94441206368645   19.69194350097845
H         2.36188250797904    9.62529601293126   18.10846342842793
H         5.37593322223596    7.58762707805474   19.95764321377387
H         4.38845653579565    6.41437795947968   20.84493300820974
H         4.24912311280315    8.15120722060099   21.22099574919210
H         0.72057662217000    7.69986066011316   19.55674107272691
H         1.63440962356981    8.22194172809456   20.98978884863971
H         1.48545554549195    6.49401901972277   20.59565270310842

