103
CSD_code = LAMTAX | q = 0 | S = 0 | Stoichiometry = C55H34Cl2CoN6O4P | MND = 5
Co       11.63360085687753  -14.65373616516304    5.67734709148016
Cl        9.38739250805570  -12.10703853167954    1.91376873731992
P        12.97975103989204  -14.06263654179573    4.02069012537347
C        11.67719523688301  -16.07069195142647    0.75948098053286
H        10.73449878518493  -16.13598336636269    0.23687122907113
C         9.51832892524583  -17.26956360644602    3.31113687548110
H         9.36547654970320  -18.22579795672233    2.84931857619111
N        10.52637158041424  -13.15554786134768    5.83320450074254
C         9.30950082721919  -15.16559870172403    4.04421997155576
C        11.66628931329036  -19.18149258205156    4.00219574289466
C        11.89910683005924  -10.54419048510303    8.20932811954156
C         9.38236442368888  -12.94934664095129    5.11495451885297
C        11.71352501832061  -19.38500978278013    2.62226667052072
H        11.72832772080611  -18.52626550273581    1.96825160363548
C        12.02270381888217   -8.12520767380624    8.20060261436152
H        12.03165472887971   -7.19670077236436    7.65030992542985
N        12.23183142879104   -9.31419325166424   11.70060851788500
C         8.72149834215312  -16.17324128741122    3.22029415387761
H         7.81415528662435  -16.05957349204550    2.65889708397876
N        12.68207946164391  -13.99566880612591    7.04257972267908
C        12.39370436504793  -11.34244657016563    3.94624067254893
H        12.31030771047107  -11.44609279438588    5.01630506141068
C        11.67097692975601  -20.28979998531983    4.84202243026701
H        11.61737735527099  -20.17314110218610    5.91373770562358
N        10.44691846762439  -15.65466565224686    4.62747363891120
O        12.28635008410469  -10.38534965945052   12.26578218948479
C        12.59724373661215  -17.44711742443795    5.49491848655980
C        13.66885741174578  -18.17113264820423    6.09837834415032
H        13.92562330449578  -19.19287293398211    5.89499761539631
C        17.24198199818006  -13.78599379298364    5.72146442112434
H        18.22618960613813  -13.72558896021228    6.16086152529323
C        15.26940906262251  -12.70099766825714    4.88822494067786
H        14.72573371514215  -11.79191205066338    4.67764589989621
C        12.28749858295239   -9.98469665490265    1.97289318316825
H        12.10641706539147   -9.03033446871888    1.50180679343140
N        12.60897043998055  -16.18177184820531    6.00225300846259
C        12.11939971689069   -9.31792936171691   10.26283785990954
O        12.26921908918829   -8.23788938020988   12.25910286160733
C         8.82034548877244  -13.87635663614912    4.23823128367812
C        11.63018413932072  -17.82291202555138    4.56286993630228
C        15.41369829053371  -15.09921779211099    4.89164808724955
H        14.97860018701478  -16.06701459855273    4.69502369598276
C        11.71920803150559  -21.56454133939410    4.29653426470126
C        12.71093430867341  -12.45976113311753    3.17887776087749
C        11.78285236679119  -15.27911317947440    1.88569444852973
H        10.93176398447410  -14.70633942818922    2.22408641636204
C        13.62096989042525  -16.08006548243091    6.89673162971795
C        13.67942537300172  -14.79901359092275    7.48413733213973
C        14.70058038980064  -13.93772275602142    4.59668902910064
C        11.79493339090129  -11.82054113243224    7.48696945551758
C        14.29600806167158  -17.32313913657387    6.97457189845083
H        15.13147369780291  -17.54244068821014    7.61080265705475
C        14.10089336468376  -15.86451534828706    2.09722414120508
H        15.06180610951588  -15.76141351824038    2.57604432269701
C         6.34717098515042  -13.85717559499393    3.79108357513705
C        10.60849999568961  -16.93875507089658    4.17587758099309
C         5.43429250295437  -12.62007361590384    1.95909031973611
H         4.58241269284352  -12.29846805490191    1.38072288361971
C        13.89690921396743  -12.85085140035335    8.56148902163037
H        14.23597502675962  -12.05312884607867    9.19370125538114
C        12.76275180609128  -12.80349664448117    7.69858847759537
C        12.99078566539801  -15.18052938370791    2.57744103668827
C        12.17713856825891  -10.11563780459049    3.34689672314982
H        11.91450107605341   -9.25862490132949    3.94981161949811
C        14.45952840197200  -14.09419838623183    8.43079779439427
H        15.31839401024266  -14.47914359042078    8.94545195810667
C         6.70414576761500  -12.19931639467478    1.60215571546460
H         6.85554192027605  -11.55468263663574    0.75143566082831
C         8.82395696492418  -11.67962795385043    5.44998536504840
H         7.91226645154744  -11.28148439131308    5.04761949341011
C        16.68115542755686  -15.01957963567717    5.43934115198052
H        17.22457430219246  -15.92656859019078    5.65839126759494
C        12.12617915095996   -8.10796733391898    9.57878436043785
H        12.21401671821732   -7.18593558828794   10.13169758903221
C        12.00718148693951  -10.52894086018852    9.59572662660295
H        11.98571043114776  -11.44740050783500   10.16216501582897
C        16.53332962053059  -12.62876044300728    5.44383309946568
H        16.96430890567034  -11.66402845797025    5.66647198746764
C        13.98967319907969  -16.66295127634484    0.97020045744109
H        14.85791252521578  -17.19264118935167    0.60711093164164
C        11.91249308935634   -9.32815989246095    7.52391736255122
H        11.84663375710110   -9.33255786156127    6.44634130976446
C         7.63720970255806  -13.45138980799010    3.45724955611741
C         7.78991424458367  -12.61766131448417    2.35208530990712
C         9.64389137002151  -11.12159802049409    6.37857972682472
H         9.51339321953917  -10.18384776935525    6.88342842782377
C        10.72129097217846  -12.03416656870831    6.60323698472047
C        12.84570502560191  -12.31539194095509    1.80097209177623
H        13.11349937240001  -13.15982591119535    1.18446331963048
C        12.78104271407986  -16.77727100369594    0.30540979832008
H        12.70217893830910  -17.40340194138707   -0.57101739493204
C         5.24861462941418  -13.44882426199351    3.05170601700924
H         4.26186443648253  -13.77747319338837    3.33544213935189
C        12.63331081969107  -11.08419349420856    1.20635476302950
H        12.73314394380903  -10.98716972813264    0.13544784779329
C        11.76221851862308  -21.76616832382758    2.92197303292264
H        11.79843303811598  -22.77221836093902    2.53432626619269
C        11.75994152235020  -20.66243516380180    2.08973877840624
H        11.79764694477998  -20.79751091038171    1.01956632421030
Cl        6.12804390491255  -14.87908018307441    5.16456909898650
N        11.72547475606245  -22.70675568134255    5.17654334905563
O        11.75574156285583  -22.49973193863157    6.37077105702277
O        11.70579230085503  -23.80847247314987    4.66891410648288

