40
CSD_code = LAMTEY | q = 0 | S = 0 | Stoichiometry = C13H23OP2Rh | MND = 4
Rh        5.77890658076553    5.78790487834509    2.59912462723651
C         5.77901745238942    7.64387665768569    2.59901524105117
O         5.77917377859002    8.79741454078447    2.59893371720825
C         5.77905089814886    3.77766455211638    2.59890469826060
C         4.99201897913963    3.03951439735995    3.49019219768877
C         4.98875061799200    1.65464140999957    3.49465282544282
C         5.77908603680743    0.95487046102254    2.59892603132399
P         4.08892912180769    5.55159620517266    1.10804258605351
C         2.60019350401614    4.62110572952398    1.64362219214766
C         3.28851163042198    7.06591888227084    0.43504970615361
C         4.47409438287957    4.67483654361812   -0.45783312218552
H         4.36092392052842    3.56725517468787    4.20288294594191
H         4.36729613281708    1.11541169954288    4.19904672301765
H         5.77908599758561   -0.12668983986433    2.59895540063244
H         2.89391736988992    3.60736933329957    1.90824998923234
H         1.85828126879215    4.59500099610606    0.84624611041411
H         2.17404013454507    5.10247991915948    2.52250363088728
H         4.04005184259840    7.67334024799698   -0.06692233082971
H         2.87244013445797    7.64511322719122    1.25798965584790
H         2.49550233758532    6.81445401272299   -0.26864469313725
H         4.78761869138760    3.65931222341693   -0.22441248082065
H         5.29304951713952    5.18635683257862   -0.96144151634355
H         3.60142214381796    4.65195152827853   -1.10976476185539
P         7.46929210495517    5.55159385471111    4.08973255328457
C         6.56612796344119    3.03951864355813    1.70763866288155
C         6.56941164902880    1.65464402862215    1.70319137105629
C         8.95802963763249    4.62113037327245    3.55409736622424
C         8.26971962090776    7.06590327518478    4.76273418779302
C         7.08419851525122    4.67481235368679    5.65559862106794
H         7.19725177394928    3.56721983860356    0.99495426027446
H         7.19085706835194    1.11535167846811    0.99883249995981
H         8.66431504817057    3.60739223040596    3.28947231558981
H         9.69996862188727    4.59502939586875    4.35145345576137
H         9.38415190066447    5.10251977523854    2.67521260630532
H         7.51819127456901    7.67329220585531    5.26476549989489
H         8.68574123389129    7.64513393668530    3.93979656503489
H         9.06276650505130    6.81442675440967    5.46638453293844
H         6.77068197981347    3.65928609808265    5.42217412435178
H         6.26524583878646    5.18631274544723    6.15923555729804
H         7.95688678954563    4.65193319888618    6.30750644691161

