42
CSD_code = LAMTOK | q = 0 | S = 0 | Stoichiometry = C21H15Cl2N3Zn | MND = 5
Zn        4.17154287663961    6.79405371897168   13.82366237446166
Cl        2.33959776354881    5.85634883068560   12.90928059394729
Cl        5.70248426699518    7.99454190360690   12.76220289976001
N         3.17229668644018    8.44110771498696   14.89237338840151
N         3.59601482753505    6.00896468775342   15.71540615730163
N         5.36540941243208    4.96575240631800   14.12097572681180
C         3.11385468615772    9.69278933923143   14.47947116580402
H         3.74293303729449    9.93716771714255   13.63448786067967
C         2.30452145772928   10.64045860340138   15.09007367130138
H         2.27734538256633   11.65321761564244   14.72170082542698
C         1.54104894301008   10.25062022131044   16.17824873761788
H         0.90192648673210   10.95810727048913   16.68561697752435
C         1.60825567472962    8.93665204136910   16.61207899124702
H         1.03525046644738    8.61578619292656   17.46726276271263
C         2.43779964532388    8.04711263427794   15.93436716749925
C         2.56719492617536    6.62331225229584   16.28308312750695
C         1.66873172696426    5.92916046466003   17.08504007956494
H         0.82807001821292    6.42695922657144   17.54015495713791
C         1.85200127571572    4.56103288800593   17.28068646440904
C         2.93051406394671    3.94020886494044   16.65207125413543
H         3.05878375816101    2.87361344084939   16.74026109136044
C         3.78116486775576    4.70384729741169   15.86069451491472
C         4.89621782373526    4.15568224894093   15.07189552404218
C         5.43420662862013    2.88699531106035   15.27090307468171
H         5.06142979019650    2.24516078975178   16.05294564153537
C         6.46960482963104    2.46419990602148   14.45328183279218
H         6.90149656996859    1.48335837880215   14.58691425104304
C         6.94142371971079    3.31669299523775   13.46855671875621
H         7.74525305590592    3.02354524749765   12.81276614780867
C         6.35397172024064    4.56762190922153   13.34320231493426
H         6.68379338681884    5.28253874867014   12.60188376396929
C         0.91532874916146    3.78810103225330   18.10673646870017
C         1.38513332360194    2.82141562020314   18.99297460449763
H         2.44845814658111    2.65466109475519   19.08736513341722
C         0.50139063729708    2.10042764693660   19.77415744267983
H         0.87666611470461    1.35983914116688   20.46469048444081
C        -0.86143699200232    2.32586717682036   19.67194213799451
H        -1.55064534845943    1.75856309535780   20.27903046015219
C        -1.33765664456165    3.27943252984276   18.78732920373261
H        -2.39973452397210    3.45282608373642   18.69928854204396
C        -0.45660339718535    4.01108131521784   18.01312658706716
H        -0.83193984049907    4.73727439575035   17.30750887621257

