36
CSD_code = LAMVON | q = 0 | S = 0 | Stoichiometry = C14H17MnN2O2 | MND = 8
Mn        3.65078103017869    2.60858262720788    8.97013093656348
N         4.14127672369538    5.63045482769418    8.55969788227508
N         2.57759601052816    4.93037728153811    7.26539690237483
O         6.55734384350070    2.45225486740089    8.69229428785842
O         3.49369194326650    1.23069170202106    6.39770888864341
C         5.40328520238419    2.54292091303807    8.79822610928010
C         3.55292877587421    1.80831401703718    7.40402674818440
C         3.47917282160435    4.50565660482378    8.18667735563132
C         3.66897705944468    6.71913319102656    7.87970342540039
H         4.05428423764827    7.70681702645939    8.02092441328459
C         2.68480845953658    6.27835487883128    7.06555863546257
H         2.06229016584694    6.80934844371185    6.37491885462155
C         1.65265580952801    4.11024296627468    6.52810106430249
H         0.80708418791171    4.71798542334740    6.20817114255024
H         2.14079491036233    3.68054483621744    5.65094678529863
H         1.29749770441819    3.29409984681303    7.15563699946549
C         5.24474567616819    5.70932833134465    9.50113470386151
H         5.33516263807641    4.71574197940234    9.95350152617834
C         6.53764954410542    6.02074751526164    8.75217695811994
H         7.37338864333006    6.02229803403834    9.44549810465191
H         6.71465497818057    5.25679180528868    7.99906913064625
H         6.48556959884706    6.99271515743236    8.26684452241538
C         4.94792434653911    6.73449089845794   10.59289562110453
H         5.71025529111791    6.67460922640083   11.36466305918800
H         4.94421009402695    7.74745047605132   10.19758250756649
H         3.98007148661188    6.53532744881657   11.04770714676654
C         2.10410368062010    3.23629748404506   10.41322158840425
H         1.52338558032916    4.14936893250527   10.48268518133100
C         3.31663373143055    2.97887406982152   11.09063630846342
H         3.79262938041879    3.64308432048419   11.80081494260526
C         3.64464730455124    1.61896407123125   10.88889032562650
H         4.43461751329366    1.07795075622547   11.39418848678454
C         2.64816834661849    1.04584287911324   10.06664557781177
H         2.54056561827025   -0.00821806333191    9.84521338224388
C         1.69564194380790    2.05077608820482    9.77186710295971
H         0.73620571792650    1.88727913576494    9.29754339207362

