33
CSD_code = LAMWON | q = 0 | S = 0 | Stoichiometry = C14H14Cl2N2Zn | MND = 4
Zn        2.60897545420727    0.93803609759506    5.92810889626737
C         4.95799444067488    1.65360657185801    7.88751340015830
H         5.17563974938564    0.59449804562937    7.89768873430708
C         5.83628055462993    2.57793257335000    8.43684792485682
H         6.76132326089817    2.24902813291088    8.88196213012957
C         5.49956757160728    3.92218445872273    8.39102871658529
H         6.16083229810049    4.67060332444028    8.80102132899174
C         4.29940767540080    4.28954934481559    7.80751253559156
H         4.00081192188839    5.32499097460484    7.75183371513175
C         3.47424928243141    3.29674629762190    7.27944183830165
C         2.20775354921247    3.62555378327624    6.65170199160770
H         1.94862430736722    4.68231943303260    6.59177430706545
C         0.22959706675374    2.99092082629728    5.58204139271186
C        -0.91069442175376    2.29971821621010    6.02917106156578
C        -2.11923496514752    2.52444063169622    5.39267033467789
H        -3.00187870356739    2.00812270332620    5.73918248269895
C        -2.20232080642420    3.39166171813549    4.31680709714671
H        -3.14876594089745    3.55158488034864    3.82293281224322
C        -1.06915542102701    4.04166140948075    3.86619609380954
H        -1.13207375063539    4.69888724319111    3.01149586596137
C         0.16137095971520    3.86747628375603    4.48612383873478
C         1.37152411346881    4.54094656834947    3.91185274740156
H         1.53612889812804    5.51586584891496    4.37161028281547
H         1.22681477309026    4.70117658913482    2.84603477750973
H         2.26649550057957    3.93522560840586    4.04521442041988
C        -0.81761893083749    1.37852065402305    7.20245371651405
H        -0.10040586578786    0.58115240431632    7.00500035805595
H        -1.78458559387212    0.93071718887592    7.41392018288146
H        -0.47737096819013    1.91166755683029    8.08945279814072
Cl        2.09337800242713   -1.05637551101374    6.64634268321264
Cl        3.66783969685468    1.64432565176471    4.10594681276569
N         3.81565908088338    2.00463422592784    7.32653884857492
N         1.42823721042842    2.71072026417314    6.23127587316427

