141
CSD_code = LAMXEC | q = 0 | S = 0 | Stoichiometry = C42H92N3Si3V | MND = 6
V         0.15494883365338    4.07193249381498    2.84944937913553
Si        3.51477430607474    4.05191963957701    2.67159472305665
Si       -1.09901807269970    1.91170144941980    5.10203426509105
Si       -2.16590458875428    4.93526194224610    0.33488945650875
N         1.97999467232582    4.64724949445288    3.20329700721978
N        -0.33064793744247    2.93032502992081    3.93087889899840
N        -1.25909914881474    4.34164553230956    1.70294472375108
H        -1.88222423699300    3.73459413869679    2.23173267904531
C         0.39649297944462    6.22604540271291    3.76937090042389
H         0.22053834981016    6.38577506664144    2.70636197736694
C         1.50762452612746    5.50041814645276    4.12721532343688
C        -0.40277336135545    7.14431948678665    4.64920901844744
C        -0.19716407322227    8.60853064356991    4.24360699580612
C         2.12252663006448    5.58746360542256    5.50870000162853
C         2.83921931005324    6.91682828481702    5.75276786712898
C         2.68150547199230    2.53351736393089    1.77295457287976
C         3.37924139361073    2.09110942022583    0.48207081273669
C         2.58215270427404    1.30559386762328    2.67430755265774
C         1.25356213237122    2.96292633290323    1.47005051137984
H         1.26402523911051    3.67901365912978    0.64822307513360
H         0.68269439078860    2.08547226896787    1.14751118218965
C         4.16373607319642    5.47573762304967    1.45840325381038
C         5.53323684983221    5.22178619624225    0.82760885472182
C         3.17653876555192    5.67264535895621    0.30742285607844
C         4.20518003676629    6.81041934181487    2.20947867850550
C         4.99740164185208    3.48978066260196    3.85938592382507
C         4.55826706356332    2.67402115345791    5.07950522513582
C         5.97685775595308    2.61113889051514    3.07067055014550
C         5.78323526330562    4.68287464419885    4.41126617940233
C        -0.02065017390448    1.91948912308342    6.73943082528502
C         1.44872929398169    1.79986845933856    6.33997891096552
C        -0.16171807727894    3.25539832399972    7.46994693432807
C        -0.36240188691386    0.80912661171745    7.73360125497107
C        -1.28241840343225    0.10803942850420    4.34043861646623
C        -2.36506850338143   -0.73043476542338    5.02322721748771
C         0.01825603240056   -0.69070845879347    4.43491022870079
C        -1.60792214497958    0.23654965429117    2.85063557436886
C        -2.85492560511593    2.73650415008941    5.44250410215241
C        -3.79218805591324    2.48270492659255    4.26270510932873
C        -3.55950649819279    2.23513096698502    6.70424780121498
C        -2.68123452061630    4.25426432600651    5.55000297340539
C        -2.86018943660767    3.32760561445189   -0.57148934639460
C        -3.99983540959763    2.68212588757232    0.22028978060302
C        -3.38506141524769    3.59246721261867   -1.98379606980415
C        -1.75450478561202    2.27090352645238   -0.65398126239826
C        -3.62979656188703    6.05456215445641    1.05010769861312
C        -4.22386451363638    5.41376217745983    2.30605616144367
C        -4.76707334812573    6.27290785508428    0.05025898872045
C        -3.12043286494699    7.43041799769392    1.48855451459864
C        -1.03642952797859    5.99721032960432   -0.87300547477230
C        -0.18285568796277    6.98785610558021   -0.08078068158972
C        -1.84137492132934    6.80188059639010   -1.89757433085149
C        -0.07084862237265    5.10626714214233   -1.65879618226083
H        -0.13780555170644    7.01265715272274    5.69969763249102
H        -1.47023566684208    6.91641645061768    4.54939887100305
H        -0.76513751897315    9.26714160937339    4.89724159326531
H         0.85358090512862    8.88569202317876    4.30153592815366
H        -0.53174174172116    8.77199574648338    3.22079949164099
H         2.83607522489314    4.77218115545366    5.60908568704326
H         1.35577899498764    5.45817167422612    6.27418588559935
H         3.35675036023117    6.88413612825105    6.70996932582526
H         3.57016706482386    7.11279496976235    4.97301308064756
H         2.13710882228739    7.74504276694078    5.77757622592421
H         2.83281526336127    1.26437466209009    0.02609910695145
H         3.43466506184130    2.89230884268632   -0.24780151759088
H         4.39126272450575    1.75097624532876    0.68833475626871
H         2.04699656252644    0.51381765665182    2.14724231516335
H         3.55674362899210    0.91148413487030    2.94647852378629
H         2.01895044724561    1.57452803484819    3.56468877466332
H         5.75552801824016    6.00748679585565    0.10372728175205
H         6.32987217620582    5.22691728414208    1.56516836255055
H         5.54865883754035    4.27036651023833    0.30199220975888
H         3.42139562772471    6.57870080060707   -0.24879795067031
H         3.20045967121401    4.84326377790304   -0.39204304235499
H         2.17061895303801    5.77455366564059    0.69567128626903
H         4.49720703479504    7.61462633705770    1.53255691163448
H         3.22145837493305    7.04858799324292    2.60927245446743
H         4.91668473065622    6.79389541716925    3.02805635926344
H         5.44160818002230    2.29904177780815    5.59849405754728
H         4.00385637122607    3.28152275599163    5.78754910109425
H         3.94360657187383    1.82599600905314    4.81012323380890
H         6.83986224028150    2.37228423708328    3.69313841674408
H         5.51233170890884    1.67491771093648    2.77736742969897
H         6.33800923715835    3.10660049086013    2.17705864439362
H         6.54806275033883    4.33042558435380    5.10473830157998
H         6.28840660282127    5.23324956164932    3.62462271807729
H         5.13391103070242    5.36418929606129    4.95318092103797
H         2.09399918482606    1.93816278554014    7.20834499083943
H         1.66725851029701    0.82656050328949    5.91595782994600
H         1.67823692771644    2.56394285263000    5.60052287929891
H         0.60618160747726    3.34563757753466    8.23989662419304
H        -0.04699799832490    4.07506994972524    6.76674283869973
H        -1.12595963292294    3.34320972936380    7.96104492411660
H         0.25090265139086    0.91311983207181    8.62972290260212
H        -1.40549424718132    0.85358043481519    8.03337564689952
H        -0.16992663315282   -0.17395675134917    7.31580162598891
H        -2.38827790431770   -1.72917077379367    4.58533133478086
H        -2.16530940959233   -0.83546797085029    6.08600512274679
H        -3.35242159193518   -0.29766244114558    4.90050933091061
H        -0.09996736606003   -1.64653942693916    3.92224148344803
H         0.83180460669402   -0.15369031135879    3.96499065739532
H         0.28337306736861   -0.90606826483772    5.46494284780803
H        -1.56631879106288   -0.74062431722499    2.36870477899660
H        -2.60105324267683    0.64175059377450    2.69173470827929
H        -0.88456489852416    0.89832991148287    2.37606158595650
H        -4.70472844515216    3.07055292950885    4.36973636281613
H        -3.30542033958590    2.76726811950212    3.33445934696659
H        -4.08268343790118    1.43921939613955    4.19810369985008
H        -4.53864587821736    2.70804989108726    6.79296949774180
H        -3.70806775040146    1.16001502091624    6.67322052712269
H        -2.99572307966273    2.47598636672938    7.59998480713773
H        -3.65018131788550    4.75095545415212    5.48283280947638
H        -2.23395178637927    4.53745623930913    6.49586655454756
H        -2.03648521449386    4.60897904969594    4.74319124360934
H        -4.29216165244093    1.74409617446005   -0.25355809251574
H        -3.68837700634904    2.45370696973562    1.23560477935625
H        -4.87966851906054    3.31712288603972    0.25411665816571
H        -3.80613841675884    2.67601269203832   -2.39956733368811
H        -4.16619050955111    4.34734854962886   -1.98232004812811
H        -2.59176572190609    3.91729553740607   -2.65001972209461
H        -2.14389729961343    1.35929777576633   -1.10867846274066
H        -0.91431700941240    2.60833267866013   -1.24987005052590
H        -1.39496115460445    2.02962450438726    0.34406545483315
H        -5.01242347500489    6.05056659369625    2.71020494746879
H        -4.65837721524597    4.44316760360293    2.09900961906376
H        -3.45803199889995    5.29819863442715    3.06716110437422
H        -5.51225420233260    6.94482183983547    0.47878824448123
H        -4.41165171545332    6.71585193679040   -0.87472660322888
H        -5.26679139393081    5.33879429574604   -0.18833276028042
H        -3.90550161303995    7.96304361314502    2.02776891525258
H        -2.26742220242335    7.32805845734755    2.15430204061752
H        -2.83942732458596    8.04537398229561    0.63895176718759
H         0.55361772872876    7.46065522594680   -0.73194298991453
H        -0.78121285128860    7.77427479392923    0.36526692295565
H         0.34963099023674    6.46876673701763    0.71002705996448
H        -1.15936352175502    7.30945604378396   -2.58149388031343
H        -2.49206587010726    6.16443386676596   -2.48770728147251
H        -2.44883060584840    7.56401760147145   -1.41834843060129
H         0.63686005135296    5.72176618303644   -2.21657310375270
H         0.49463083754248    4.46011743238547   -0.99449492753955
H        -0.59960594964967    4.48633926536970   -2.37623895681815

