54
CSD_code = LAMXOM | q = 0 | S = 0 | Stoichiometry = C21H27Cl3MoP2 | MND = 10
Mo        1.19298496823835    2.48960898851124    2.28923728426446
Cl        2.78215198315055    3.63992614566414    3.83532464062490
Cl        2.62786179642710    3.95093980792854    0.78397190975940
Cl        0.48523660900153    1.54984500177719    4.53606588846064
P         0.22947584752689    4.54531914084630    3.18889977188028
P         3.18167121124961    1.13024295480773    2.69250271673747
C         0.49053859611270    2.21518655676564   -0.05206608806240
C        -0.56244557047102    2.71005527567369    0.73334961943403
C        -0.85192028607740    1.74887156391252    1.74381125577721
C         0.07206922528238    0.67618435460985    1.59105530162059
C         0.91661212869141    0.99209124448205    0.48876064522511
C         0.89569491129455    6.08882121689360    2.49797833730618
C         0.29083867689482    4.89970313847176    4.98406880184056
C        -1.56813002842153    4.69850870873052    2.94078699806782
C        -2.38244358909862    3.88973937179640    3.73064389419758
C        -3.75687362938542    3.93690234160627    3.59610281499039
C        -4.33314239304570    4.78942351379520    2.66718976490900
C        -3.52935860887877    5.59007688558806    1.87410835822813
C        -2.15155875216670    5.54510608156120    2.00643828325742
C         3.80101047869136    0.85781963838672    4.39379233215997
C         4.69057474055742    1.68938849638084    1.84776546133986
C         3.01482012315486   -0.60994515939720    2.18238997385658
C         3.62409801045394   -1.15061089992303    1.05705044617080
C         3.43486699857747   -2.48490498849819    0.73794201986914
C         2.63452003514946   -3.28622297010277    1.53381300547453
C         2.01774580723233   -2.75084552932447    2.65397983638101
C         2.20494040490941   -1.42010033472926    2.97543718306747
H         0.89305861531447    2.68764823982543   -0.93614926879281
H        -1.17106614504699    3.56913289476996    0.48734325805738
H        -1.75075257622303    1.71730216701875    2.34316735007982
H        -0.01673808812708   -0.29474964202738    2.05742046912461
H         1.62655591345971    0.32075736356666    0.02581586394245
H         0.35867673359506    6.94291292541373    2.91239879987069
H         1.95285132940514    6.14313239433431    2.76068351802538
H         0.81823676742916    6.07182125946784    1.41215072965552
H        -0.53483725600141    5.56511002495010    5.23865593311561
H         0.20655792702071    3.96981109171013    5.54559417105198
H         1.24146507591506    5.37426375409254    5.22488922147193
H        -1.92473540664826    3.22152189390454    4.44809095022955
H        -4.38145576812049    3.30916743552620    4.21480626023779
H        -5.40712517257001    4.82852244085412    2.56109858653236
H        -3.97610676313850    6.25415343723567    1.14823385563069
H        -1.53452291897680    6.17282344216553    1.37996661990175
H         4.35837285049119   -0.07925634587942    4.41800334526076
H         4.44918260062385    1.68605102313694    4.67809317889412
H         2.96171407043484    0.80986546518455    5.08700320277764
H         5.50534747352278    0.99049860947429    2.04067888553709
H         4.50334028844691    1.78142521322861    0.77914195157665
H         4.94134961049693    2.67838682049500    2.23335928161476
H         4.24899122280508   -0.53470705215820    0.42664154074956
H         3.91564466318396   -2.89965699783131   -0.13630915019584
H         2.49055663794060   -4.32634048670055    1.28147562019241
H         1.39087284501579   -3.37314569783962    3.27583623357805
H         1.72172577470930   -0.99288222010226    3.84420913501118

