69
CSD_code = LAMXUU | q = 0 | S = 0 | Stoichiometry = C26H28N8O2S4Zn | MND = 5
Zn        2.56624664272380    2.54733254585223    1.74616864147799
S         0.40568582476464    1.44618176156837    1.39570758422732
S         1.67323882406545    1.09435152146095    4.01777051494224
S         2.86546874436052    3.56855426299463   -0.45483299881389
S         5.14183617185137    4.37658251644411    1.24494521250446
O        -2.63176699021833    0.04733552863170    5.44607006870089
H        -3.06655056259127    0.61593307111221    6.08924857721403
O         4.34093492946507    4.08011607479980   -4.73754844584739
H         4.49327179169129    4.94996327795994   -5.12455370970090
N        -0.54838226653548   -0.11685336912406    3.29635006409338
N         4.81017107488972    5.17119628226291   -1.22351734430138
N         3.97543434237894    2.74492207906909    3.19103637997631
N         5.78297936648440    1.83673481509199    4.35134156940217
N         4.69587059013454    3.77529916625059    5.15449710878094
N         3.94730626187009    0.82447157138658    1.44191879905297
N         1.97481783747374    4.36770918694148    2.89233171793362
N         7.55764684881476    1.99370839999266    6.37913081754712
C         0.42111573034370    0.73105131721030    2.94641073347268
C        -1.69557914251542   -0.39346781986699    2.46476266754961
H        -1.62024151048196   -1.39951637289292    2.04447204371302
H        -1.74094625886520    0.32748845125347    1.65267958582764
H        -2.59487599520177   -0.32282456594310    3.07578441537248
C        -0.54254964775523   -0.75848124504824    4.59115390284100
H         0.49291463110538   -0.92524308050480    4.89665241200005
H        -1.06376645933017   -1.71340399778842    4.50162501279655
C        -1.23603205107456    0.08858612067456    5.66072626313959
H        -0.98781554484723   -0.31842813929635    6.65065011798609
H        -0.85736995168381    1.11659225120881    5.59962178841045
C         4.32182609536239    4.42708240650929   -0.21684661581046
C         6.07931423575421    5.84218732450338   -1.05454841395474
H         6.05837569822750    6.44012158785586   -0.14178893536545
H         6.26232838614507    6.48965988063429   -1.90831566608632
H         6.89642490868914    5.12199378288367   -0.95949904662514
C         4.22750588385435    5.15764935094074   -2.54305409127357
H         4.38488818105042    6.14056903502085   -3.00105934439349
H         3.15422749268183    4.97646869913873   -2.45446747589506
C         4.84792951784948    4.06324174586728   -3.42976386317875
H         5.94348692154443    4.17280379520080   -3.43517155162520
H         4.59450404906199    3.08330906687869   -3.02087131693511
C         4.91426217653327    1.81783850985993    3.36174659396808
C         5.65729490586205    2.84422001672245    5.21350065815030
C         3.87507758123020    3.68189060115019    4.12832856862966
C         4.91372284939745    0.75198221875208    2.36226536055926
C         3.88238631553730   -0.10965441549846    0.51012293946122
H         3.08240142656935   -0.00398225335087   -0.21053390869474
C         4.77891367904321   -1.16728065568837    0.44957118891865
H         4.68813140298883   -1.90816063470289   -0.32911501025662
C         5.78284973379506   -1.24875949612706    1.40409951081064
H         6.49532915309218   -2.06023387507943    1.38480606614330
C         5.85545663921104   -0.27180233243827    2.38149099814357
H         6.60713917371632   -0.27015243485429    3.15419327983874
C         2.76946943983200    4.62068239641796    3.93624920287196
C         0.95740439891403    5.17455306206808    2.65192265314142
H         0.34579499095498    4.92163964319742    1.79617203734831
C         0.67739093926618    6.28050050516815    3.44212455777655
H        -0.16387403360137    6.91388097413322    3.20861114893466
C         1.49771792131576    6.54924457753408    4.52802304509027
H         1.30949936408438    7.40302681318955    5.16230500955631
C         2.56399314349715    5.70495407656029    4.78281874572756
H         3.23960949542813    5.85871352924526    5.60814307076569
C         6.62147931483124    2.93723945291316    6.31020284896379
C         8.44000042383716    2.05903117320752    7.35288569526190
H         9.17956729768596    1.26863926514450    7.36388044159045
C         8.45100275685113    3.06105296057350    8.31637052488036
H         9.19898579293612    3.06925684912175    9.09399661765724
C         7.47644631642161    4.04506468858961    8.24736933087785
H         7.44701040567814    4.84315564639267    8.97548773020460
C         6.54268768899902    3.98698070665907    7.22902159336242
H         5.76297470474355    4.72310014395442    7.12412232130274

