86
CSD_code = LAMXIG | q = 0 | S = 0 | Stoichiometry = C38H30BF15OZr | MND = 12
Zr        2.28697212479513    3.26481533651451    9.67736488884814
C         1.48078895626309    1.05186081843547    8.87751395803754
C         0.34201031823784    1.80569166279690    9.26277785223481
C         0.40914581062726    2.01980778886520   10.67458070887742
C         1.57756260486425    1.36880768041539   11.16889616537493
C         2.27729001606486    0.83756529359410   10.04037329669501
C         1.78376507012456    0.48717715013194    7.51736284139624
C        -0.86182157239343    2.15389029331841    8.43515585580449
C        -0.73769900658205    2.58462591759372   11.47016423785852
C         1.76045417150147    0.85670422232577   12.57308993351409
C         3.51305324014252   -0.02207165829637   10.09308831970703
C         3.53614925428428    5.35986446995189   10.10335215077321
C         2.35751723574155    5.44760227572450   10.90372352047803
C         2.41669956472809    4.44683425800740   11.91268391346015
C         3.63644923963318    3.73177580647112   11.74478242857851
C         4.33044335749375    4.29520383141801   10.63129386214592
C         3.99149901080625    6.44185127874284    9.15867188198195
C         1.39535826631810    6.60564760288430   10.93265210127943
C         1.55724281016811    4.49950263967520   13.14672920382583
C         4.32980379620805    2.86866629167665   12.76379731002495
C         5.80197773998565    4.05777764259187   10.41691935834412
O         2.21213565612934    3.44105962427017    7.86976709220785
B         2.61743716005653    4.18146531951684    6.76049518382179
C         1.67160932413605    5.55509288494463    6.66357128891927
C         0.74834691950153    5.82152301701369    7.66563531708607
C        -0.19354790658530    6.83941622813310    7.60234041719251
C        -0.24652986539645    7.64967638137769    6.47540036276018
C         0.61730372739011    7.38067782321144    5.41802075067959
C         1.53461858414307    6.33793704263300    5.51900423293012
F         0.66974286812263    5.01747053926288    8.80106694620897
F        -1.04459142084116    7.02514381408403    8.62081115642770
F        -1.13146418958973    8.64555446518860    6.39711026000382
F         0.54263666327490    8.11134918571676    4.30390882534389
F         2.26326233448164    6.05938069775201    4.43375468446310
C         2.26897090579656    3.33004317165013    5.36009295064851
C         0.92637289006690    3.11515930555879    5.06829885506474
C         0.48290762914087    2.34943635504981    3.99748938642696
C         1.41003054970623    1.75022647247982    3.15419832357838
C         2.76123746421210    1.93166043464565    3.41488930952357
C         3.16240685818894    2.70449740331348    4.50209462216456
F        -0.02140000244813    3.65830280261296    5.85659191948279
F        -0.82895774398535    2.17907223263546    3.78498181018398
F         1.00842045739521    1.00519376035308    2.12079700742997
F         3.67609607793061    1.35372176722281    2.62831102082377
F         4.49260820159203    2.80653237237131    4.69317031364646
C         4.27350860393940    4.37053107730308    6.82761586017169
C         5.05106667488517    5.28429538910066    6.11960505406661
C         6.43232606404832    5.17039121405937    5.99112990133800
C         7.09844367084185    4.10289943415149    6.58525428503621
C         6.36774192499168    3.20916662252626    7.35699652483014
C         4.99585078539901    3.38317376075338    7.48477983769380
F         4.47559662279375    6.35495181814172    5.56557856247250
F         7.12473569090374    6.08046738958056    5.30269010198967
F         8.41841502863855    3.96249914852246    6.45186222993404
F         6.97718369015828    2.20346081000837    7.99799471556587
F         4.36521493594095    2.49998627252962    8.36326025787877
H         0.96036591584991    0.67672702042500    6.83394336494724
H         2.68455079022251    0.92971137170050    7.08853624248724
H         1.92753974344283   -0.59218608764906    7.58524357125069
H        -1.10126016921310    3.21646482612770    8.49063007547877
H        -0.71000197114188    1.89535003909056    7.39250423377670
H        -1.73122184179974    1.59841574592129    8.79577422179040
H        -0.52927019977275    2.56347354797517   12.53659707423223
H        -0.96700341935866    3.61127701870755   11.16868595153656
H        -1.63604757657155    1.98820652397761   11.29704509231674
H         1.12757453810056   -0.02572688101805   12.70271961574728
H         2.78577165155907    0.54866065393758   12.75714158330807
H         1.46302805218928    1.57662103042661   13.33107158249929
H         3.26252940069285   -1.03491522437662   10.41827999641874
H         3.97451763464281   -0.09096421491935    9.10933562087921
H         4.25198002956796    0.37622455521468   10.79112727191237
H         5.00679638867743    6.25749681322054    8.81527642904708
H         3.34844213237698    6.53840354342775    8.28346546787875
H         3.99184546172353    7.39975694206732    9.68312634231502
H         1.60168951042506    7.22273469408914   11.81082823209266
H         1.50876347569871    7.23550707105041   10.05285193958628
H         0.35521235768508    6.28308626612785   11.00012324536770
H         1.90862312109039    5.31195827096466   13.78862282991918
H         0.51647630246502    4.70506884844385   12.90429655736565
H         1.61019439842386    3.58387288498702   13.72869107484391
H         3.66516351043814    2.59537384769051   13.57705349636401
H         4.74788534400289    1.96199293086408   12.32476669649583
H         5.16269497984484    3.42872447140505   13.19713204241827
H         6.03729462249145    3.00440492771909   10.25923746009329
H         6.18749787201066    4.63833164319224    9.58205207421608
H         6.34466910017206    4.37613027867230   11.31119745628064

