42
CSD_code = LAMXUS | q = 0 | S = 0 | Stoichiometry = C13H24Cl3MoP | MND = 9
Mo        2.05359805675011    2.03072470899567   11.67669708318766
Cl        3.81407181649349    2.63302082279710   13.41821454550445
Cl        3.73579697887536    0.63496907812529   11.17400296804239
Cl        0.88475908566979    0.27525625465043   10.27069162956195
P         1.09507899071409    0.83765782228662   13.51904338559098
C         2.18376877792682    4.17039301029048   11.16740395497656
C         1.41126671728436    3.52401596830133   10.13564133815006
C         0.12252337436100    3.21554882413832   10.68205214068115
C         0.11427427919772    3.58846890297973   12.04364297218528
C         1.37221391324444    4.17796972735457   12.35694351966309
C         3.40734341626789    5.01397737630177   10.97926887248678
C         1.72458692988872    3.49213110267868    8.67009080394164
C        -1.03842196757506    2.75602094270114    9.86731640129228
C        -1.11050208572354    3.67895391355312   12.90446707477908
C         1.67807518804714    4.99997975518657   13.56723055470770
C         1.14457718342658    1.54194999334064   15.20001012192952
C         2.09484092592281   -0.67382342266672   13.73546685055822
C        -0.58584683335640    0.14257239777010   13.38623608556863
H         3.12414674701083    6.05915240925099   10.83752331541087
H         4.04509844552329    4.94546688603438   11.85923721624752
H         3.97960300216059    4.69025243303560   10.11132854572903
H         1.27286807854049    4.35065483453879    8.16811105718914
H         2.79986325704423    3.52032936860898    8.49856843663247
H         1.32643375214987    2.58229589673048    8.22249341955446
H        -1.15563334855230    3.40492500521530    8.99988972892259
H        -0.86653470413250    1.73953373908717    9.51063693199827
H        -1.95927275509664    2.76691953215452   10.44326218175735
H        -1.52658189605460    4.68507375098170   12.81409077431323
H        -1.87036752314243    2.96961131094314   12.58765623145797
H        -0.88458507913294    3.50453087840497   13.95338727021893
H         1.74777550307168    6.05155872461491   13.28581462496320
H         0.90749134600999    4.89251471764305   14.32565829883479
H         2.63349113505751    4.69698553813954   13.99418529585444
H         0.87032759872021    0.77796942290099   15.92706225890456
H         2.15846475884878    1.89293051796335   15.38440446207094
H         0.46151475451812    2.38314935430306   15.28264879249122
H         1.70500436095335   -1.26005660101385   14.57040337511877
H         2.05236641444523   -1.26177818690847   12.81523556055046
H         3.13043013596006   -0.38652583302116   13.93314327382053
H        -0.73996218222157   -0.60106193179458   14.16775407404697
H        -1.32908043548867    0.92907257380575   13.48274897629211
H        -0.68096611360427   -0.32029152038124   12.40513559481784

