49
CSD_code = LAMYAB | q = 0 | S = 0 | Stoichiometry = C24H16Cl2N2O4Zn | MND = 4
Zn       -0.90836995592673    6.97782599966775    2.94778500440836
Cl        4.86572360119370   11.09859536952804    7.28049315403755
O         0.65775019997105    8.24965779731684    2.94097112135714
O         0.03381315904559    7.22234792083628    4.76179223134954
C        -3.03297813534265    5.44712935437055    4.49441916153583
H        -3.40984982012083    6.44933719691388    4.63855260500313
C        -3.58356421886623    4.35045406328213    5.14217573627684
H        -4.41711540700763    4.47382234847081    5.81477441682749
C        -3.02808433786298    3.10283471885151    4.90965825043445
H        -3.41764243333108    2.22465918082096    5.40317033400226
C        -1.95807815550239    2.99425305395981    4.03656623733594
H        -1.49990968698908    2.03476019020995    3.85856414806678
C        -1.47373422574882    4.14545433848455    3.41824278293344
N        -2.01527874061542    5.33810458550354    3.66278492790406
C         1.78670262813423    8.81299183310799    4.94871054320808
C         2.58672739274101    9.75503984092501    4.31080747696165
H         2.44743709655033    9.92467492155358    3.25422832522019
C         3.53557896353868   10.46179512328308    5.02462272562331
H         4.15926734711688   11.19621544990914    4.53876324447337
C         3.67913782177587   10.21996147078216    6.38290266497623
C         2.88723935723652    9.28568308517536    7.03415678818600
H         3.01383688702812    9.11503206128533    8.09218621467202
C         1.94074662461569    8.58457321479759    6.31196301220662
H         1.30688976582350    7.85321659383015    6.78925393113221
C         0.76206362511508    8.05483175106989    4.17625215190727
Cl       -6.68116011411227   11.10028244848958   -1.38481773063896
O        -2.47594169117210    8.24775592593641    2.95468059009274
O        -1.84973352904056    7.22294159994232    1.13310777646090
C         1.21696767601184    5.44830987989634    1.40008112709531
H         1.59285049095926    6.45080739295949    1.25542096643676
C         1.76841572850833    4.35186480228675    0.75266270405199
H         2.60188912375894    4.47562030341251    0.08003986523329
C         1.21384487786393    3.10391137139379    0.98550830308595
H         1.60418912246767    2.22585094195940    0.49239641894024
C         0.14377426977845    2.99477926800712    1.85847939915225
H        -0.31377351672777    2.03499530818361    2.03651692111248
C        -0.34133196835400    4.14575226213540    2.47660317506554
N         0.19944500025631    5.33872460197465    2.23184388528785
C        -3.60352209755484    8.81253519288100    0.94659504148936
C        -4.40058387532804    9.75752226947404    1.58391559488707
H        -4.25921157299783    9.92885579977143    2.63998500665348
C        -5.34888238592768   10.46507245271321    0.87022338162378
H        -5.97018277263260   11.20183176593367    1.35561708958376
C        -5.49482790557283   10.22109025009135   -0.48742200798584
C        -4.70613417500826    9.28364716432500   -1.13803525403289
H        -4.83468441615020    9.11123480172653   -2.19557335304764
C        -3.76005612962833    8.58180839773905   -0.41595721439084
H        -3.12836488528756    7.84840250633947   -0.89297769512160
C        -2.57929460668258    8.05385182850214    1.71920881892550

