56
CSD_code = LAMYAZ | q = 0 | S = 0 | Stoichiometry = C23H28Cl3MoP | MND = 9
Mo       12.22157575851439    1.89748240521048    0.89817134942261
Cl       12.81838058668595   -0.09559924196646   -0.41584917138179
Cl       11.04268001028900    0.19884855403709    2.04750762544496
Cl       10.13601516413885    3.07987587739352    1.46271940696378
P        11.80073899614932    2.87451385422517   -1.29231960758726
C        14.05496572443459    3.56358583159142    0.90530056460888
C        13.18315751205910    3.77366608421070    2.00518432842126
C        13.14878477025697    2.57914414523327    2.79641126335146
C        14.01049686172356    1.61090914544033    2.15701588960418
C        14.54722323469171    2.23170398303078    0.97563441742025
C        14.57568028867103    4.64858586567004    0.01527567352142
C        12.58562700208779    5.07791327927021    2.42688962715697
C        12.59163401941590    2.49926653955273    4.18306676901697
C        14.53415234150862    0.34691725621419    2.76405058012648
C        15.64756285173596    1.63977852311966    0.15375519308169
C        10.84608661177183    4.43314800475082   -1.39458431617035
C        13.14371928165385    3.10877356320146   -2.49468432241316
C        13.43366738386258    4.33546184460781   -3.08401563939031
C        14.47387548586517    4.44140051235504   -3.99163866545778
C        15.23186082259151    3.32998528956638   -4.31913458704957
C        14.94742987603758    2.10612873081101   -3.73392599991323
C        13.91150761199914    1.99400713255212   -2.82538045442584
C        10.67481253958011    1.77832964350398   -2.21792753840022
C        10.63637665197556    1.79608276566644   -3.60912104513489
C         9.75500354749353    0.97500118486182   -4.28860250746376
C         8.90458621320280    0.13546414926013   -3.58822601475066
C         8.92976611902413    0.12253771441491   -2.20318619094998
C         9.80929831619391    0.94191727927788   -1.51835459186936
H        15.30836628100786    5.23608762138104    0.57312397796857
H        15.06457607060103    4.24302384264509   -0.86597102516664
H        13.78287167392742    5.31960071588152   -0.30824221707066
H        13.02607024480164    5.39419596543319    3.37342583467638
H        12.76223097140552    5.85160597864763    1.68421305730684
H        11.51001764230895    4.97465713855387    2.56878619762016
H        13.30238844150335    2.91449401626557    4.90080674037723
H        11.66170648651458    3.06171134509079    4.24844205053284
H        12.38448633422849    1.46669033718296    4.45618925506793
H        13.81180706463066   -0.07244971999289    3.46141083384012
H        14.72620608782124   -0.39190445629033    1.98761933972032
H        15.46585432224797    0.54059481823179    3.29980511620791
H        15.38634208475089    0.62661421752512   -0.14767184247875
H        15.83322483778574    2.22449911721249   -0.74376113644927
H        16.56509952112639    1.59865952912362    0.74317458708279
H        11.39820605077791    5.24730554391892   -0.92806638677616
H        10.61703775264855    4.66774210885672   -2.43434127705723
H         9.92180625270870    4.28535780861134   -0.83692045417564
H        12.85654824873763    5.21466004444646   -2.84103846285808
H        14.69179137470974    5.39758476960914   -4.44487956429376
H        16.04147612461379    3.41821609822181   -5.02833321513548
H        15.53524884181876    1.23600567814518   -3.98544155815939
H        13.68809217221201    1.04432415998683   -2.36057822141809
H        11.30556841048912    2.44376892823982   -4.15905593662283
H         9.73528759806896    0.98775438520430   -5.36855059621498
H         8.22300967518783   -0.51023641130868   -4.12162689604610
H         8.26757251330655   -0.53019658543768   -1.65413080642836
H         9.82334133651186    0.92610308760599   -0.42681942985805

