69
CSD_code = LANBIM | q = 1 | S = 0 | Stoichiometry = C22H42IrN4(1+) | MND = 6
Ir        0.00029169049415    7.89658287990918    3.11133231491372
N        -0.90091246793430    7.67090602469311    6.18091830964232
C        -0.07506125557589    8.08898117712238    5.19001838995630
H         0.99134884520587    6.76737250996064    3.33108344916514
N         0.81254030752183    8.93284050842400    5.78496348061774
C        -0.53040364276331    8.24698436697707    7.36472069921653
H        -1.02845394724787    8.08464290279349    8.29385709302431
C         0.54195512853944    9.02860533872534    7.12138013223988
H         1.10404238361702    9.62702182788267    7.80360819110226
C        -2.00965835417895    6.70513818210513    6.07873655488254
C        -1.45046073724131    5.35728041398886    5.61946597550989
C        -3.06608843556858    7.24458873079919    5.11216541262871
C        -2.67918941522198    6.50486845817920    7.44114474283708
C         2.00063823191136    9.53856015891499    5.17352158424838
C         1.67891271449718   10.01405152391560    3.75759220758787
C         3.11534404636575    8.48687627565421    5.16449722936111
C         2.45367143885807   10.76005988358985    5.98119699708044
H        -0.75887749128997    4.96893661681228    6.36254759431346
H        -2.67921401403599    7.28671708477821    4.10035262073614
H        -1.98467633065790    6.10496233911603    8.17544894777633
H         2.57651572485344   10.42576631949925    3.29986432972178
H         4.01129489808046    8.89061122216441    4.70165914227212
H         1.62535404351486   11.44318077314177    6.16041018485627
H        -0.92505926730188    5.45255426167213    4.67456602469298
H        -3.38648680318671    8.23828447580802    5.41858097603839
H        -3.11871930555665    7.42678001514329    7.81521047424544
H         1.35518802374428    9.18898630756905    3.10486970542648
H         2.80373686109623    7.59853800749761    4.61887737478105
H         2.89128267173926   10.47379118283884    6.93324444195011
H        -2.26239616563846    4.64728674326923    5.50033495062338
H        -3.93175513579380    6.58974511876063    5.11656891738357
H        -3.48100966000494    5.78129677881242    7.32343553711494
H         0.92644397996879   10.80124517732776    3.78974108974475
H         3.35800583783748    8.19052281297541    6.18224884770502
H         3.21799289785688   11.29332439188083    5.42167119687540
N         0.90051220289319    7.67048049843011    0.04126489314209
C         0.07542740092641    8.08897537886002    1.03261481971821
H        -0.99000531022873    6.76672604000131    2.89161738570029
N        -0.81276946494568    8.93239854634193    0.43793389495772
C         0.52898968554651    8.24590014416383   -1.14253615373857
H         1.02627676574878    8.08312107115706   -2.07200516978514
C        -0.54326704326979    9.02751984183810   -0.89873854952306
H        -1.10600903627457    9.62550674374226   -1.58080704467065
C         2.00955659771714    6.70501084071169    0.14309265725824
C         1.45104255202113    5.35713122440360    0.60312503281071
C         3.06641514613017    7.24506893124591    1.10884788621874
C         2.67834191602699    6.50442202316144   -1.21963192239169
C        -2.00042926719654    9.53836433070863    1.04997267372414
C        -1.67788145555477   10.01378864570970    2.46572911455926
C        -3.11535937596128    8.48691879811613    1.05954148959317
C        -2.45352497415804   10.75999514170269    0.24252749798886
H         0.75886645727988    4.96849910738935   -0.13925447712440
H         2.68002592937765    7.28767409926967    2.12082710747455
H         1.98351091299058    6.10392220589365   -1.95331131695500
H        -2.57506555984158   10.42607017738001    2.92377183234423
H        -4.01078608480351    8.89062898551479    1.52341627924567
H        -1.62507765291792   11.44281476649721    0.06276896717818
H         0.92647449851238    5.45250253136808    1.54847220296800
H         3.38651385630609    8.23865626828231    0.80177324096372
H         3.11721066890005    7.42637373816090   -1.59436530470036
H        -1.35449408234608    9.18856143855224    3.11840282387616
H        -2.80342389955407    7.59826118397771    1.60445242859741
H        -2.89182100886032   10.47385039316051   -0.70923887438109
H         2.26322187942457    4.64731539271125    0.72167809317042
H         3.93216797268773    6.59033852304295    1.10435917116366
H         3.48055711088928    5.78124441112314   -1.10216282057143
H        -0.92496397868480   10.80054152998403    2.43324079379645
H        -3.35905039562576    8.19108020953801    0.04188663690689
H        -3.21732025967107   11.29354604517125    0.80249959021007

