85
CSD_code = LANBIN | q = 0 | S = 0 | Stoichiometry = C38H42N4Zn | MND = 4
Zn        8.80170126793570    1.67807722718044    8.59586660784857
C         6.17764544135728    2.04617876912052    9.69745894157454
C         5.19545117289411    2.47465492522593   10.76285084721372
H         5.69838782957274    2.97929021499615   11.58419378402663
H         4.67358276957082    1.60109746492477   11.14852439467979
H         4.44829116933542    3.14844826904264   10.34576582304325
C         5.71597554122508    1.08912460423281    8.79507511405954
H         4.71090695358274    0.73245005115820    8.97197953221709
C         6.33622877336639    0.58626902155874    7.64977629687811
C         5.49761420252981   -0.32569744144985    6.78763209985043
H         6.11532426638454   -0.87273593216162    6.07991015095681
H         4.75560785887946    0.24750379617355    6.23345990109781
H         4.96648280305047   -1.03520785571682    7.41890680811552
C        11.32089478936738    2.98206249322918    8.25725691384164
C        12.21920148280726    4.09535495444420    7.77601329412645
H        11.66484255231401    4.81603136252859    7.18018752414422
H        13.03318275342488    3.69565878005584    7.17272198643559
H        12.65802612710060    4.60395710613167    8.63201883973095
C        11.82936404555048    2.18235408234052    9.28274538529226
H        12.79665428963295    2.47765412200696    9.66457172150723
C        12.17473718011669    0.30994943052904   10.84322180575608
H        11.60269145149390   -0.40749606007926   11.42650534292435
H        12.61256242232006    1.04550972079032   11.51524937671881
H        12.99211796514757   -0.21451560721988   10.35029230205990
C        11.30359660900234    1.01204842106529    9.82743396181127
C         7.77902252861700    3.66071536991702   10.40532678026140
C         8.97089550175939    3.64086815908903   11.13033104052290
H         9.54789378623820    2.72794488508204   11.16536174487260
C         9.40731166659535    4.76706139492210   11.79535631879778
H        10.33088928102843    4.72948947096616   12.35612644003078
C         8.68094302771235    5.95312210346292   11.75693645176017
C         7.50453963617908    5.97650342613449   11.02139873584361
H         6.92986861300162    6.89053678852551   10.96226758036831
C         7.05503903570276    4.85250085257467   10.35489228108695
H         6.15194490306047    4.90229818032658    9.76393173669224
C         8.11921594029404    0.59649404344569    6.07038890075593
C         9.35817804256518   -0.03129098306058    5.95925957680317
H         9.84140743485645   -0.39728587933277    6.85425774221428
C         9.95804453429584   -0.18360655041170    4.72571158329477
H        10.91900578266324   -0.67496260714907    4.65926133123810
C         9.35138200877884    0.28884132755137    3.56838107498084
C         8.11741504737305    0.91567166550699    3.68259039929367
H         7.63209104487595    1.30037167731287    2.79660184318420
C         7.50389719901041    1.06556797100903    4.90949058638479
H         6.56044543804264    1.58576858769555    4.98302387705424
C         9.71429415612104    3.40958915584088    6.55069149741446
C        10.45839549438558    3.27894141060510    5.37858727537840
H        11.40434285805233    2.75876600328610    5.40617408399610
C         9.96712481089849    3.75845760124832    4.18062807201784
H        10.55347523312405    3.63414529644519    3.28086386729668
C         8.73103310183713    4.38495503143174    4.11020933988107
C         7.99658554041738    4.52291291865184    5.28287130036268
H         7.03135610650815    5.00918319339840    5.24920392594305
C         8.47371103699524    4.04208323788832    6.48425495326453
H         7.89091147048986    4.14575493742288    7.38866686302136
C         9.69090933448743   -0.74122733841369    9.86335676081891
C         8.41740381039109   -0.93308923813574   10.39711961078650
H         7.79909575793645   -0.07070452948808   10.60212327757944
C         7.94992958855913   -2.20411058379573   10.66457493622588
H         6.96119702451148   -2.32704228226160   11.08432303282599
C         8.72735213733572   -3.32534972590736   10.40370108357870
C         9.98913839662874   -3.13417550706391    9.85313920995483
H        10.60463614622876   -3.99368482699328    9.62596631230032
C        10.46864634957884   -1.86792060280570    9.58575857978874
H        11.44037105114640   -1.74463296108500    9.13003483268998
C         9.16491881549377    7.16474791184553   12.49569123924312
H         8.58203709839197    8.04261750241299   12.22804940996784
H        10.21256547315189    7.35822164740501   12.27047454495025
H         9.07932220823239    7.01061704705743   13.57174224225814
C        10.02570901242837    0.16115849699361    2.23532298293259
H        10.71540115209057   -0.67978839093789    2.22657772972191
H        10.59400691342790    1.06617298658854    2.01699682386550
H         9.29428916966166    0.02589314824328    1.44133349780200
C         8.19721725136674    4.90572246166050    2.80947132391431
H         8.71983423408524    4.45641463082354    1.96845075346671
H         8.32654537630069    5.98733729831598    2.75256225817083
H         7.13398525264689    4.69240491836353    2.71744711012369
C         8.21993514878650   -4.70892648403229   10.67993975766827
H         7.31495761113673   -4.67775913190989   11.28171181688334
H         8.97077374760823   -5.29618268956403   11.20628407703286
H         7.99230372304560   -5.22142298618551    9.74478231279869
N         7.40564737987914    2.53331855508896    9.67201830328044
N         7.58791137253851    0.85057384670669    7.33575082301217
N        10.11848033979511    2.81513334484336    7.74664251508999
N        10.10344714365211    0.54786289227119    9.52528688132772

