75
CSD_code = LANJOZ | q = 0 | S = 0 | Stoichiometry = C34H37CrO2P | MND = 9
Cr        0.38015179059944   12.51328318287203    4.03362765324803
P        -0.44558932493382   10.61620690543782    2.94973601391890
O         2.21199586177684   13.04210008897713    1.75661955929855
O         3.03405650474616   11.30030662181149    4.57476454886748
C        -0.93481211320025   14.45295969704478    3.92141753290260
C         0.25925097580418   14.61600821372762    4.66339416662502
C         0.52974818555763   13.81810521391035    5.79062063834609
C        -0.36122567416782   12.79918268119232    6.20288293208696
C        -1.43331054799923   12.52512924925612    5.35610717812209
C        -1.72995597324000   13.36075451156801    4.24328807889822
C        -1.30689250812360   15.47944218366048    2.86291366565697
C        -2.65575719321937   15.17827457812251    2.20261943103790
C        -0.23342807959341   15.51147937891984    1.76854078378483
C        -1.40422097749406   16.85852495117975    3.53657231735946
C        -0.17980129249789   12.13717134621310    7.56040651070354
C        -1.10240691301353   10.92808149865815    7.74963115699082
C         1.26858347671130   11.67605221985525    7.76485458164636
C        -0.53204280195627   13.18902029790974    8.62721989611838
C         1.43972333764999   12.82884371004063    2.60205753278034
C         1.95352104370736   11.69641601878195    4.37378747169029
C        -0.65368562258969    9.04965200819860    3.88547400628913
C         0.14307583846655    8.87691286284784    5.01048874194392
C         0.08804848336434    7.70111793977844    5.73802618996861
C        -0.76586647772055    6.68545076476398    5.34145312007499
C        -1.54829412317252    6.84283903652167    4.20821790428653
C        -1.48930750800584    8.01463427369338    3.47614792936047
C         0.39951442286152    9.83536811012874    1.51608772881824
C        -0.27788053368599    9.21567505929919    0.46976955806706
C         0.42727473904724    8.59486424520190   -0.54566387999732
C         1.81148977829951    8.57432819487193   -0.52304024581649
C         2.49135155222959    9.17317647094105    0.52475379603653
C         1.79009253546199    9.79736441093236    1.54026219447765
C        -2.10931126380634   10.88977148641559    2.25769340019804
C        -2.19912242603624   11.61891399639065    1.07251716134111
C        -3.43221231918264   11.97442824825559    0.55967471569999
C        -4.59134712000643   11.63186781139991    1.24081827772215
C        -4.50918700038950   10.93926000318632    2.43760803554187
C        -3.27571335680836   10.57302860037812    2.94780442061991
H         0.90589604979364   15.46276031872896    4.46926753111411
H         1.36454090998103   14.09429639929546    6.42284309120017
H        -2.16626107983341   11.77197399227504    5.61682885904512
H        -2.66606072998294   13.18755254826263    3.72951116251744
H        -2.63875400700538   14.21567124123623    1.69722700363671
H        -2.87348061040742   15.94373890720698    1.46055455061914
H        -3.46343478256774   15.18257649233768    2.93273443134687
H        -0.16858165791116   14.54225064829055    1.27912020051207
H         0.74560361829519   15.74714455750285    2.17624529928624
H        -0.48208185671294   16.26357804302484    1.02257312298095
H        -2.12987578844662   16.83529082728519    4.34838314554271
H        -1.72453772123266   17.60457663417855    2.81253331215969
H        -0.44642680702554   17.17344560662315    3.94237268674895
H        -2.14909176006546   11.22661257500662    7.75762086299435
H        -0.88946369616530   10.45566679679614    8.70633247479959
H        -0.94797656426405   10.18974764599413    6.96585803182994
H         1.96007147592810   12.51364976448487    7.77759476150652
H         1.57276203225867   11.00095261120307    6.96979445362363
H         1.36019304489440   11.15541732202630    8.71582499245663
H        -0.43326560533607   12.76136063107554    9.62261568666809
H        -1.55768605108280   13.53291147740258    8.50095687987369
H         0.12729771092379   14.05146983784506    8.55849944773242
H         0.81253359142062    9.68035913356963    5.28840101172675
H         0.71025306354134    7.57616216889629    6.61211123109309
H        -0.81636748482807    5.76748026881795    5.90829435552702
H        -2.20370270893390    6.04465032072486    3.89059145534663
H        -2.09192220554660    8.12448644802113    2.58581532015159
H        -1.35823156017234    9.22434154848609    0.43624508891987
H        -0.10806543549379    8.12418906125808   -1.35792999299672
H         2.35779715926213    8.09104420266800   -1.31962337966139
H         3.57054091628868    9.15659391080940    0.54999343101375
H         2.31572917574580   10.26855956632633    2.35747276471594
H        -1.28548533571999   11.89666431712534    0.56202952676478
H        -3.49453064167878   12.52467029252114   -0.36822087315076
H        -5.55536693886731   11.91191440296493    0.84281090609399
H        -5.41086401922949   10.68375174742956    2.97594350740130
H        -3.21601107526350   10.03369165995251    3.88371895414498

