66
CSD_code = LANJIT | q = 0 | S = 0 | Stoichiometry = C31H31CrO2P | MND = 9
Cr        1.21736202995081    6.74111333709106    6.05412225610441
P         1.17626941258519    6.31412381442636    3.69303221506058
O         4.17344390524152    7.01178507146260    6.04849799455004
O         2.28472776446904    4.14108129518653    6.97040020104702
C        -0.76190970800870    6.41798868928577    7.15890235121399
C        -1.00419418872403    7.19046351684219    6.02781722204695
C        -0.35509788149619    8.44437530951833    5.85688381655850
C         0.59189939218403    8.88595215269241    6.76840381019030
C         0.96495851243976    8.02327989100738    7.82438949047395
C         0.27623984844569    6.81422418520501    8.03188058644774
C        -1.57692614224728    5.19760654863968    7.47502209717485
C         1.20187735500141   10.25347171393932    6.67543783293654
C         3.01075755214153    6.95189773787930    5.98074700807815
C         1.85546921285456    5.11409727095601    6.49384513187271
C         0.12226578820506    4.88834506237156    3.16603891194233
C        -0.19417034271932    4.48515994854061    1.86056669524927
C        -0.99770590739981    3.36180539845821    1.69214604686620
C        -1.48079539753522    2.63462467321683    2.76387890654728
C        -1.15592364689319    3.02444290921532    4.05102182648787
C        -0.36023925190724    4.13798383193016    4.23744845228722
C         0.29074264984291    5.19336979124141    0.63487754022147
C         0.34378244510875    7.75857990050313    2.93402255569446
C         0.95320238367533    9.02413811718242    2.93983754713603
C         0.22991634743248   10.11635152784038    2.47626848488367
C        -1.07855950447325    9.98952716699207    2.04313612969337
C        -1.69350960981789    8.74999597096899    2.08262620619460
C        -0.98579322322949    7.64920240657696    2.52838651349727
C         2.34568989263018    9.23509299780968    3.44644977441371
C         2.61770398757538    6.08025504956485    2.55869557205995
C         3.55008566679442    5.06743161100807    2.81204025655326
C         4.64642114611975    4.93122675929463    1.96780540691573
C         4.83615770824290    5.76756645555018    0.88449613320899
C         3.90317815251464    6.75403810795635    0.61922872602734
C         2.80842422536103    6.90302119864001    1.44917805550008
C         3.40583089186731    4.13126605632431    3.96396010748428
H        -1.81288111264976    6.92687235573766    5.35343747109095
H        -0.69652101011957    9.10579173041171    5.06949701441526
H         1.67304490275665    8.37123723022325    8.56766742917086
H         0.45387204723204    6.24334718865943    8.93648164814121
H        -2.18381224859100    4.89722214415508    6.62274651390896
H        -2.24496050639357    5.40456732868651    8.31378146513056
H        -0.93427872910492    4.36552093649881    7.76072257164589
H         0.86494216127341   10.77064704830659    5.77943116003616
H         2.28926281018049   10.18834405490636    6.65930137429427
H         0.91693874684847   10.84996030293508    7.54396302891180
H        -1.24750562065376    3.05054787305143    0.68735064940235
H        -2.10198711136130    1.76785787881038    2.59294439860858
H        -1.51376243645465    2.46330492055451    4.90141511267200
H        -0.07344714465264    4.44383299431279    5.23537667684537
H         0.24634117977163    6.27146236234910    0.75600106653101
H        -0.31334369103531    4.91374164364388   -0.22591680370841
H         1.32429468857181    4.91731970173039    0.42870868081260
H         0.70167825279761   11.08952453856057    2.46698530760967
H        -1.61910276959450   10.85598747446602    1.69165477683667
H        -2.72155689299414    8.64062931912136    1.76947464020560
H        -1.47369362177682    6.68479717750059    2.56662668447754
H         2.60089184732864    8.48207324717730    4.19539309291611
H         2.44185949659474   10.22627366364710    3.88452149828900
H         3.07198734321997    9.16301612289894    2.63773920016710
H         5.36501090700791    4.15005663545258    2.17052349981852
H         5.69842494555461    5.64454831640380    0.24612691131079
H         4.02258522038530    7.40518149109891   -0.23456878238641
H         2.07801968323874    7.65989073443564    1.20642512152191
H         2.35879037904908    3.91249506020859    4.16299859620253
H         3.83108813772133    4.58536488005418    4.85840000160785
H         3.93443867962794    3.20009816888633    3.77239813098905

