50
CSD_code = LANKAP | q = 0 | S = 0 | Stoichiometry = C24H19N3NiO3 | MND = 4
Ni        8.67162680104815    1.39972601101322    8.51296501772784
C         6.89581639248711   -0.74866404326802    9.00892260279061
C         6.04015503090238   -1.75062129531867    8.45217889380130
C         5.34678617975795   -2.60654303752936    9.27124993423363
H         4.70061338098347   -3.36515529303536    8.85799504516178
C         5.46472369030683   -2.51197249368996   10.66482867004548
H         4.90818392330172   -3.19969170699516   11.28284066245114
C         6.26901044661205   -1.56408894376266   11.23033446072233
H         6.35982191818162   -1.48749662958492   12.30342222899888
C         6.99538987556343   -0.66662886587788   10.42262178020752
C         7.82421441248976    0.32619411368761   11.00381476904122
H         7.88642798753271    0.37930461215789   12.08787556948398
C         9.91112147807208    2.90400285030032   10.26037813217785
C        10.75820200612112    3.95120696827622   10.84801537987145
C        11.45404003356913    4.82880340554729   10.02038186650171
H        11.36036344864007    4.72460589643941    8.94993519409581
C        12.24979143551104    5.81704922949647   10.56758306637675
H        12.78788359343178    6.49591624564508    9.92163515993637
C        12.35782756821924    5.93866196923332   11.94336084663812
H        12.97987052772873    6.71207861620109   12.37022457888452
C        11.66689798488497    5.06774496001763   12.77206591021620
H        11.75182678261448    5.16426724105186   13.84475826561628
C        10.87015538702904    4.07747460516615   12.23121414429124
H        10.32538476881276    3.39139350008569   12.85960461231943
C         5.17432976517056   -2.69184660389177    6.44741748573477
H         5.48388566904173   -3.71774626681766    6.67477060312495
H         5.28333028942022   -2.51455985171218    5.37803827275958
H         4.12340752132778   -2.56162528507638    6.72796221026723
C         8.25114339500176    0.94200008647561    5.68519925674633
H         7.57963169376417    0.18767927938254    6.08043478220827
C         8.38326538027539    1.08278651343751    4.29015852901174
C         7.66647532460021    0.27347316755922    3.38306467353805
H         6.99581891638392   -0.47559982187751    3.77606664143584
C         7.82890538806583    0.44538240642862    2.03717829113964
H         7.28367379537470   -0.17110566716009    1.33815099942930
C         8.70735466354191    1.42608420311183    1.54384051574178
H         8.81882021151269    1.54292101820822    0.47596557951439
C         9.41507051908219    2.22517184458037    2.39869098308401
H        10.09084656780310    2.97922541683883    2.02278236372695
C         9.26950653794660    2.07190935462070    3.79192069795925
C         9.95693055820688    2.84730196230238    4.74797904591073
H        10.64311647470480    3.61412557931222    4.42202922030291
C         9.75521363724881    2.62732401882901    6.08141070303104
H        10.27545867799328    3.21444734772755    6.82473155712787
N         8.52522111069241    1.19934969075196   10.33530039721396
N         9.25801141079449    2.09044750700808   11.05058954762858
N         8.90750051932932    1.67946306692847    6.55769340130472
O         7.53275204944781    0.03079274053298    8.19951712062714
O         9.82005679994360    2.80055485529093    8.97560901410091
O         5.99913806952492   -1.74982447804495    7.08009131573738

