56
CSD_code = LANMOC | q = 0 | S = 0 | Stoichiometry = C17H33ClIrP3S | MND = 6
Ir        3.04091519370390    4.56179285308817   10.44822185793097
P         2.50528132824689    6.15799576930347    8.83849927312884
P         4.84008828433891    3.59724062237786    9.20702804838793
P         3.18245511206965    3.06367161685030   12.22646077327702
Cl        5.04279516643108    5.79613468245375   11.17668754419061
S         1.61998074017258    5.82867834714112   11.88909839631075
C         1.48714911579364    3.44883450836498    9.74540000838405
C         0.18415676403610    3.48376317683625   10.02836317913992
C        -0.57577578548771    4.33167724007364   10.93498323889754
C        -1.95731687461826    4.10975577667920   10.98466065820203
C        -2.80149513305156    4.83716331923569   11.79575449797662
C        -2.27307774312769    5.83358890143356   12.60308912553529
C        -0.91775787243312    6.07609323032805   12.57724709102518
C        -0.05387974271257    5.34583672125492   11.75818399924964
C         3.61900980124022    7.59708059086906    8.68919337191066
C         0.90247741722407    7.02220733041975    9.01156429058224
C         2.30720174251573    5.57535878050966    7.10602697650432
C         6.23441793851524    2.87015679161571   10.14903734108093
C         5.83406203154196    4.70841737451332    8.14049459197982
C         4.50412687827033    2.22409620058918    8.01786621709289
C         3.24391275263856    1.27225079311706   11.81778536429701
C         4.56211327508539    3.28763134541490   13.40131382789923
C         1.77843132879498    3.02155134071714   13.39784486860178
H         1.77700088584844    2.69379024900003    9.01155009415390
H        -0.45827684517096    2.77048845780055    9.51077570336378
H        -2.37288982468851    3.33257808605422   10.35600164587645
H        -3.86191790928644    4.63114733648530   11.80026260863950
H        -2.91512190578449    6.41642792503689   13.24729152984668
H        -0.48892465059465    6.84821489495264   13.19893734813364
H         3.23568823655710    8.30056505160457    7.94987555841141
H         3.66410718312959    8.07252511510817    9.66857853307937
H         4.62403908469352    7.28040812649125    8.42513214373131
H         0.73984266651023    7.66261298366179    8.14456077038876
H         0.10019495996419    6.29042490071774    9.08544574630690
H         0.90962345329811    7.62228878680305    9.91916143774851
H         2.13696242973107    6.42236571319273    6.44266325107877
H         3.17864132323077    5.02038636349572    6.76967459676924
H         1.44360088621941    4.91320867840174    7.07883024872522
H         6.99486556391339    2.51407797386110    9.45367170805042
H         6.64840199594420    3.65820083637081   10.77466005958855
H         5.90473800975872    2.04534856222139   10.77558914602313
H         6.63829659478510    4.13932278737500    7.67382878697530
H         5.22426163969243    5.16988167128386    7.36805886279716
H         6.25394593222936    5.48135633858079    8.78083238689576
H         5.42341617661933    1.89741066515462    7.53411760940673
H         4.05834176720013    1.38496619608078    8.54778291029688
H         3.79926784324038    2.56238567728438    7.26135950050426
H         3.38732063006599    0.68558053100668   12.72427001849777
H         2.29296858906459    1.00644181302679   11.35960591300832
H         4.04080387936671    1.05162736505458   11.11282856395105
H         4.48107968274605    2.57667080080644   14.22373034521871
H         5.51824801326293    3.17633324963316   12.89782014842564
H         4.50007597901341    4.30680236447461   13.78154715779328
H         1.92561586578573    2.21214324469237   14.11295927843238
H         1.71564590185698    3.97272721630538   13.92240737582325
H         0.85136424260794    2.86581272479290   12.84928447047510

