53
CSD_code = LANMAO | q = 0 | S = 0 | Stoichiometry = C15H33ClIrP3 | MND = 6
Ir       -0.89430436018235    9.90066180219098   15.80486292415862
P        -2.03486674389331    8.79315235797515   17.49133805678367
P        -2.86700014299926   10.41826989763520   14.50473140341845
P         0.59941422245604   10.85116744906477   14.31238763444876
Cl       -1.19771418516342    7.97820007824486   14.31311042188980
C         0.81114842081532    9.21816914900735   16.77873470055878
C         1.35100829346510    7.98363646212096   16.42073768315250
C         2.48722389257264    7.47716381137460   17.03138067890068
C         3.12470798230590    8.19488997991491   18.02650124788521
C         2.61007651258641    9.42360986651298   18.40008952812342
C         1.47413345106286    9.92362797728641   17.78552100873072
C        -2.72567706143481    7.13895989144043   17.12610401842952
C        -1.10449099275196    8.38715370638219   19.01845917656559
C        -3.45939497650124    9.65930820832827   18.27120611244523
C        -2.72974743548326   10.48539964364432   12.67381486812264
C        -4.30013569017429    9.27051526508117   14.56803013793016
C        -3.74362008468505   12.01557980836124   14.80246779875342
C         2.32959261141728   11.07993523771578   14.87501033950190
C         0.92047157076688    9.97620907691744   12.73819104834802
C         0.27256080521823   12.57453250294162   13.75478170081002
H        -0.88017683732048   11.18618823277357   16.64775395188891
H         0.88353423070822    7.39098882888192   15.64776642274112
H         2.87395642313117    6.51419512131767   16.72479568484358
H         4.01106522079223    7.80205704643393   18.50477258727164
H         3.09604775400827    9.99893979224256   19.17696880469409
H         1.09947762337761   10.88720349167887   18.10205780831028
H        -3.19747156463125    6.71882660221376   18.01434824957764
H        -3.44277524997630    7.19405748832302   16.31207576640763
H        -1.90183293571839    6.50309882705006   16.80602225049123
H        -1.77206990505773    7.92581712811387   19.74610351003126
H        -0.29149391721455    7.70527576021877   18.77965818099549
H        -0.67888476888382    9.29849607020597   19.43148109593717
H        -3.94368238970962    9.01600296310177   19.00504122495026
H        -3.07455973840187   10.55059618363093   18.76307389847493
H        -4.18469479964450    9.96863174391048   17.52329084944322
H        -3.70581845585946   10.70136004702578   12.23799968986273
H        -2.02028161353862   11.24787878489331   12.36006007921147
H        -2.38632468037029    9.51177883143174   12.32934494570287
H        -5.09060052945729    9.62995920529363   13.90828717305129
H        -3.96044339071462    8.29395993777975   14.22817836818347
H        -4.68945096213390    9.18338143023218   15.57999549855190
H        -4.61149725775410   12.12583678451480   14.15318099394524
H        -4.05950710409569   12.05863027922659   15.84289036804052
H        -3.05245287944544   12.83798086248231   14.62908038690169
H         2.90469649628702   11.59084104673180   14.10289453750325
H         2.33354463523311   11.66745201414382   15.78994253277857
H         2.77571923100278   10.11087368141884   15.08661890625743
H         1.66443484505510   10.51245344836393   12.14908970585246
H         1.28767754979413    8.98139516664002   12.98526798806640
H         0.00254992606388    9.86282789305883   12.16854447852813
H         1.01202946739968   12.88497782065995   13.01741400603001
H        -0.72411911557534   12.66544789089110   13.33122706998705
H         0.33301860325147   13.22084742297339   14.62831249653134

