31
CSD_code = LANNEU | q = 1 | S = 0 | Stoichiometry = C4H16CoN6O4(1+) | MND = 6
Co       -0.00000392961873    0.00001130061099   -0.00000358377096
N         1.27733060940464   -1.21565596551688    0.92729866371923
H         0.78281368656461   -1.75675837810419    1.64444400077461
H         1.71273966792735   -1.89404984150524    0.29671870875934
N         0.88335172867371    1.44225577645127    1.05319677586678
H         1.49621470190670    1.99266910618769    0.44237791744397
H         0.21834556782805    2.09969096977534    1.46902840772943
C         2.34212049268136   -0.41225763960920    1.56039456190438
H         3.06782160138403   -0.12747967627361    0.79417981416856
H         2.86462707106310   -0.97446302847275    2.33869837518971
C         1.68189499180479    0.83387713804531    2.13590024494300
H         1.00978939638136    0.55458133698953    2.95141128715691
H         2.42918583136503    1.52900538863606    2.52730824045867
N        -1.22873136324261   -0.18605820602644    1.36196875787859
O        -1.74983564388630    0.82224862076720    1.81210149658390
O        -1.45814034481196   -1.32504021171781    1.74545515292351
N        -1.27735986089437    1.21567510906976   -0.92731942512266
H        -0.78286419634175    1.75678851331033   -1.64447043966377
H        -1.71279584251820    1.89406411030175   -0.29675365718881
N        -0.88332784456708   -1.44225492358641   -1.05317326637985
H        -1.49618182384975   -1.99266465071204   -0.44234147226188
H        -0.21830722687922   -2.09968724214690   -1.46899072477500
C        -2.34212332627560    0.41223445188472   -1.56040915851679
H        -3.06782165756363    0.12745424896157   -0.79419317942926
H        -2.86464025256073    0.97440484079051   -2.33872971926821
C        -1.68187411544117   -0.83390214229728   -2.13588721457982
H        -1.00976720521802   -0.55461565431498   -2.95140031607626
H        -2.42915091051384   -1.52905342317875   -2.52728347231464
N         1.22873789408861    0.18608901110358   -1.36196051124469
O         1.74984491511873   -0.82219488460346   -1.81213491427467
O         1.45810738799087    1.32508594518032   -1.74543135063328

