60
CSD_code = LANPIZ | q = 1 | S = 0 | Stoichiometry = C27H28NO2PRe(1+) | MND = 9
Re        0.09860562042125    4.44844754198309    2.22725977387071
P        -0.42159861535524    6.51347380447457    3.42558896245632
O         0.57173010780645    5.93454665210140   -0.22838707525658
O        -2.00689547962134    4.25832567887138    2.38532182385868
N         0.39717671304825    5.33786373498761    0.75427639232903
C         1.26283192849395    3.62185043035009    4.23734124075987
C         0.51857269320032    2.49429540376654    3.91469642427621
C         0.90992534958104    2.05034627240293    2.61348908258821
C         1.90847092690068    2.90568382333239    2.13147800426414
C         2.09507826218309    3.95499810659752    3.10125631488356
C         1.04464529876261    7.14246732630008    4.27418799520760
C         2.18529664534310    7.36932395015764    3.50336859237887
C         3.32790445440486    7.86656303910432    4.09908460111637
C         3.34082489081886    8.12759453346958    5.46263250335481
C         2.21065369291265    7.89475215728800    6.22891039581998
C         1.05809582319963    7.40142634825708    5.63976565920269
C        -0.94101916642299    7.81307129900410    2.27600678782166
C        -0.39193766620893    9.09095938794162    2.28957760241758
C        -0.84640231806574   10.03742342103006    1.38692978836844
C        -1.83940269223324    9.71544242862670    0.47663746156948
C        -2.39193956974640    8.44288056269705    0.46724864103989
C        -1.94539780787827    7.49094742489268    1.36276279949730
C        -1.74592094053644    6.38226413790753    4.65100423257939
C        -2.60369979986118    7.46188360138116    4.84985494117259
C        -3.59309470953007    7.38257580896221    5.81318070604845
C        -3.73619610160369    6.23359013769719    6.57480898903553
C        -2.88517587113656    5.15774480624705    6.37642869677235
C        -1.89176915608886    5.23004441674947    5.41784683701714
C        -1.74077378657592    3.39278822700948    1.49980035219637
C        -2.10980723302751    3.57588337764417    0.05686227933754
C        -3.51106995545479    2.98611631899316   -0.18766569859186
C        -3.92196375504189    3.14747975070110   -1.64430909811278
H        -1.67965312889418    2.33816882800082    1.81948613517389
H         1.28551162625911    4.13652260301072    5.18469796565270
H        -0.17840325692199    1.98152313705870    4.55782969428639
H         0.56457578497979    1.15207700351136    2.13001202163079
H         2.49894423088811    2.76431265636583    1.24079557466942
H         2.96931398476628    4.58707308987029    3.16022261332698
H         2.15486051031734    7.15361231500293    2.44197976266910
H         4.20957805215561    8.05115303148328    3.50491017634652
H         4.23502060505232    8.51284216413066    5.92735628890359
H         2.22402930762714    8.09891620114021    7.28846035631548
H         0.17297690776884    7.22447819786565    6.23466781516240
H         0.38125790408653    9.34451086542700    2.99985499073738
H        -0.42157622107488   11.02927739102568    1.39542584959730
H        -2.18488726873019   10.45696093691054   -0.22669381427853
H        -3.16851919785714    8.19700234213268   -0.24039005403771
H        -2.36903587409049    6.49527478386534    1.37838742377759
H        -2.49422633784129    8.35548270811324    4.25237862990418
H        -4.25678167844326    8.21941879521454    5.96698426256354
H        -4.51327490653861    6.17431283130896    7.32095936698934
H        -2.99925196726422    4.26226368377490    6.96843777107809
H        -1.23268548412863    4.38872796540631    5.25972023309870
H        -1.39113045690850    3.05596045729714   -0.57988027115884
H        -2.11445106981604    4.63803295584958   -0.20183181967767
H        -4.22754249759786    3.49646665008048    0.45854757906167
H        -3.51172438893283    1.92716249714161    0.07793025280996
H        -4.91536515260352    2.73530509733483   -1.79782404151117
H        -3.93816905453339    4.19721123880930   -1.92584753110593
H        -3.22903875440420    2.62599566193451   -2.29962324127622

