83
CSD_code = LANQUM | q = 0 | S = 0 | Stoichiometry = C30H49ClNPZr | MND = 12
Zr        4.12532610892498    4.25595030545483   10.18810823475209
Cl        2.29797620200387    4.91607755116752    8.81529896293800
P         4.01432234336865    8.49612027686018   11.73061649367778
H         3.28282881623658    8.69660263944234   12.91256216583566
N         4.30199870760817    5.74910662139142   11.50688158261359
C         6.21936861282642    3.44074539067415    9.11792858975991
C         6.61095740540717    4.59268269323541    9.86597116748238
C         6.00954209020257    5.73473688067878    9.27209194406112
C         5.22882074862151    5.29943125681812    8.17125434845851
C         5.33584119518718    3.88556955745055    8.08209465453633
C         7.03545908580692    2.17384679431877    9.06011861490841
C         8.31171144606732    2.42650359931296    8.24734281548487
C         7.64370429098497    4.64444180594028   10.95878305155885
C         6.32835507177624    7.16785949630014    9.57810082363229
C         4.57938506494408    6.21475631578965    7.17213219901844
C         4.72656118549252    3.05218053542585    6.98417433223150
C         3.28175447480416    3.23748195257882   12.30802693658523
C         2.21398633954056    3.14328579464276   11.37446643281723
C         2.60623548994752    2.24151463607963   10.34956303492004
C         3.91178580560863    1.76238176782460   10.64887008587338
C         4.34104651172612    2.39959263973781   11.85146129167019
C         3.19708589874935    3.87553341352277   13.66935122202255
C         2.46546360891437    2.95060304824008   14.64831100680211
C         0.84197895926494    3.73420544658458   11.53458564083976
C         1.71417123520520    1.70961103569295    9.26246551251124
H         1.04851525765520    2.48534650563949    8.88578884145590
H         1.09562200376801    0.89463063740528    9.64712862354037
H         2.29688124921161    1.32108849370880    8.42765101437007
C         4.45539432288619    0.48105672310988   10.07299142729487
C         5.58060550446348    2.09320898159138   12.64867587695729
C         4.52439324113249    6.74004093189352   12.21490202945938
C         5.30949191571109    6.73373927544493   13.51144444530790
C         2.56731580565375    8.02099962396902   10.64578888258626
C         1.31118620050910    7.71684074890714   11.45957565452227
C         0.16614505172630    7.30466249866632   10.53911901603837
C        -0.11590754362168    8.39634311377685    9.51204739057400
C         1.14104619908180    8.67094151317254    8.69285023806247
C         2.27785968344119    9.10862904519276    9.61095913174235
H         6.48293089081903    1.37043762253902    8.57324795822210
H         7.32103781478387    1.83551435908597   10.05936050966382
H         8.90674157047094    1.51795386430490    8.17746283101954
H         8.05439681889432    2.75296197664943    7.24270814480672
H         8.91328034423517    3.20222303601816    8.71316554077584
H         8.56104895905426    5.11229891341227   10.59321517533744
H         7.28772655661953    5.23616367514993   11.80377494357600
H         7.89535267299893    3.64696582593150   11.31283158880854
H         7.03906093095992    7.55492546697528    8.84362221962747
H         5.43372018364867    7.79302589569742    9.53458035912629
H         6.77192895391668    7.27228286856937   10.56630252192492
H         5.33793018407559    6.62613658802294    6.50076227259758
H         3.84209236021239    5.68615743926300    6.57171933098849
H         4.08284925913133    7.04970012416646    7.66791232472451
H         5.16824012534063    3.31113528750761    6.01897567517588
H         4.89654703408100    1.98913884424052    7.15089483206646
H         3.64882212319162    3.22770460298482    6.91255705950312
H         2.66494572610416    4.83012684254118   13.61426175580098
H         4.19939547878640    4.07324515989902   14.05378207173616
H         2.42357242056779    3.39717725710136   15.63953440456159
H         1.45038780968785    2.76591300772193   14.30759529808172
H         2.97930780105088    1.99497632358445   14.71963616185938
H         0.16915039878619    3.00677123772970   11.99633414283401
H         0.86840895451827    4.62094600268172   12.16627913434791
H         0.41880763661556    4.00935295221384   10.56941304852448
H         3.82512237992651   -0.34790630886613   10.40690586267627
H         4.43987113010539    0.47402531533972    8.98314909665643
H         5.46685758810873    0.27799079711001   10.41383277955753
H         5.33149427562563    1.48718140248846   13.52327831552420
H         6.30423566110725    1.53371085923275   12.05891428271491
H         6.05745963647145    3.00883636484643   13.00412301510968
H         5.82832427325398    5.78571187717646   13.65120715410426
H         6.02891393517705    7.55240971435060   13.50523645413797
H         4.62958809046290    6.89193060076561   14.34799472011782
H         2.88957071748745    7.09613770730643   10.12778360998012
H         1.02135683425065    8.60749387406599   12.02733709576694
H         1.52776060099956    6.91192165849918   12.17009262211150
H        -0.73000797911432    7.10197840509863   11.13066371403378
H         0.44596381794531    6.39143222585672   10.01296469590306
H        -0.42905105638003    9.31222370823719   10.02092849222345
H        -0.92844706814028    8.08318406947666    8.85353364396085
H         1.43060285812156    7.75617407201080    8.17121363095515
H         0.94482145893025    9.44454132132555    7.94697406247253
H         3.17882226213545    9.31649799338031    9.02641528259134
H         1.99834198414498   10.03333962065897   10.12493844679042

