101
CSD_code = LANSUP | q = 0 | S = 0 | Stoichiometry = C57H11F25N5O2Rh | MND = 4
Rh       12.19951366558071   14.91208573031780   -6.21264256090517
F         9.76335810740290   11.77020098293686  -10.19088968222961
F         7.66405726742290   11.19924331536894  -11.79833049322937
F         5.31201873406705   12.55108783974323  -11.50691639990126
F         5.08691068496865   14.48249958198236   -9.59625295501309
F         7.19911737680428   15.07558286339107   -8.01264981120852
F         8.74101095987902   16.32976716088763   -5.13739699328716
F         8.68384208017835   18.95915522468426   -4.66184225909498
F         9.76604741304123   19.98293603027085   -2.37168084829679
F        10.95366990322517   18.29699533709580   -0.57856341904910
F        11.09947350318817   15.67180994236169   -1.07163278343345
F         8.82634392844060    9.45468888107611   -0.14020475141066
F         8.81471766670330    7.40461428922424    1.57375698130729
F        11.06146593719975    5.88833452372314    1.94602965198829
F        13.33440602904573    6.50504465414903    0.54545049086616
F        13.38399674933633    8.58939779285654   -1.11810710095260
F        15.47434883773667   10.75983825731863   -2.32277813328467
F        17.32081535855767    8.98857017376273   -1.44947490348082
F        18.45881727294606    7.22518095256154   -3.19422153889984
F        17.71715639436399    7.24908418242159   -5.81827904726624
F        15.84064835275281    8.99864625893016   -6.68190464962980
F        16.34238274190658   12.39307199398059  -10.24784566768154
F        18.04472328014886   13.43491366276530  -12.06284779131714
F        17.96053243045495   16.09627716651137  -12.65699991922630
F        16.15425919112178   17.70736930455649  -11.39525108560698
F        14.48300971688295   16.67354951622162   -9.53771104916090
O        12.75098544990657   16.38929938246826   -3.69136681201715
O        14.84568452306168   16.23051955195609   -6.63933770632717
N        12.08877426499124   14.13543243936236   -8.10409812071756
N        10.31334360453032   14.22484361600435   -5.86704146729514
N        10.54671478781300   12.27490662814809   -2.52874042227663
N        12.97989743889141   10.02941498097560   -3.40395821706052
N        14.19902433931667   12.50236182923379   -6.85531657492016
C        13.07799449433275   14.23568607426054   -9.03086323510447
C        12.51005901620136   14.41432081300281  -10.33385661764323
C        11.16211855213946   14.32701937083872  -10.19131157465151
C        10.90526121167013   14.13025715112769   -8.79763229336938
C         9.69196977471249   13.78283390385240   -8.20831288936627
C         9.52214348138924   13.64080906441859   -6.82190505283624
C         8.49644023513857   12.87379815447189   -6.20252297484547
C         8.69465669531191   12.97381263115460   -4.85793923841311
C         9.77271423151408   13.88894162758910   -4.67212698955179
C         9.96319269083401   14.45825551047428   -3.36231593944744
C         9.97803615691331   13.52025383310689   -2.32456986139809
C         9.36827526000723   13.45235923251436   -1.04830481518605
C         9.54417589436229   12.18567522842063   -0.53440468494516
C        10.31393095965014   11.44698540795127   -1.45697513209910
C        11.12209111915227   10.27352109692554   -1.56857236279053
C        11.91863363764367   10.50419652584055   -2.70386866408626
C        11.56320064007302   11.75759799268571   -3.28694047782547
C        12.44975130957202   12.05016490922661   -4.29678091836530
C        13.37026707223432   10.97267501334987   -4.33241449353652
C        14.59940171863140   10.89191927639625   -5.01435200258174
C        15.00332917292192   11.73099686230792   -6.05779082198155
C        16.34328085944186   12.00571516098622   -6.44483378195240
C        16.31662757985467   12.91549033337152   -7.46088834107505
C        14.95686204487835   13.19854128722106   -7.76340229028689
C        14.45314662344203   13.98362469395943   -8.80402587165092
C         8.54482386586027   13.45712076194357   -9.07548231994645
C         8.62984076750019   12.46787670191028  -10.05515583813091
C         7.55202807937698   12.15546315763585  -10.87538702392465
C         6.34962111996726   12.84108648344507  -10.72492758023378
C         6.23704236179669   13.82654052690486   -9.74753489914085
C         7.32571274543044   14.12134053060831   -8.93318420547324
C         9.90648746555659   15.88266992351552   -3.11565178766681
C         9.31315895401452   16.78169632507547   -4.01853122806419
C         9.26455182603965   18.14783892463007   -3.77693678188825
C         9.81296533299135   18.67347159428921   -2.61049828703918
C        10.41374609060705   17.81055586897061   -1.69697384467609
C        10.45785360176781   16.44844673493395   -1.95203117772452
C        11.11688844864561    9.14196946378895   -0.67043691189387
C         9.96532888042152    8.77889912316130    0.04588495001794
C         9.93945878451016    7.70294286365142    0.92152647372117
C        11.07862035159376    6.92497073660881    1.10986345713346
C        12.23186398587078    7.24232935173543    0.39875184292642
C        12.23862938611440    8.32679821637742   -0.46556011340095
C        15.60074644666202    9.92180170011273   -4.52572402874760
C        16.00059416181107    9.88630489517054   -3.18705799314417
C        16.95603942875715    8.98645025709998   -2.72957171457444
C        17.54198461047460    8.08954645424686   -3.62022315058915
C        17.16444356951502    8.10612408591203   -4.96107744824121
C        16.20792294311580    9.01530804323472   -5.39777713891707
C        15.38606907222009   14.51053308356414   -9.81230937572916
C        16.30918503539974   13.70800535332822  -10.48594586144735
C        17.17660126788836   14.23126142563285  -11.43788913996303
C        17.13200928374650   15.58813386352355  -11.74699581371157
C        16.20891047578676   16.40813980238638  -11.10245045566147
C        15.35116894184709   15.86590135219000  -10.15395400860333
C        13.86693639210392   15.65043571684097   -6.55392584828914
C        12.41391746310109   15.77375470211236   -4.59531228839831
H         8.10471669548751   12.54680910644885   -4.07066737743136
H         7.74065441994700   12.31117562777686   -6.71465808385749
H        10.41709477497579   14.39311087951871  -10.95950169211494
H        13.06525314248538   14.52741231683534  -11.24431998055887
H        17.16608749023490   13.35648466232230   -7.94252286094082
H        17.21707200460820   11.59667839954118   -5.97748993359873
H        12.52332692375307   12.96679984939268   -4.87500273065159
H         9.16160436695622   11.83040838824463    0.40103322282675
H         8.80434521067945   14.24471183982219   -0.59727049794212
H        13.49293700013865    9.18897736447075   -3.20173834103280
H        13.19812840616560   12.38733833812243   -6.94772481840588

