65
CSD_code = LANTOM | q = 0 | S = 0 | Stoichiometry = C28H30FN3NiO2 | MND = 4
Ni        7.22143054186520    8.53949558133667   31.35687260753566
F         6.16712006442808    7.15233129135500   31.60457094564797
O         8.50179983718371    9.37752339621300   35.06794317774080
O         7.03229390348006    9.13001874550513   27.39143271361369
N         7.49972100463138    8.72503587530895   33.20372188214302
N         8.32712009898874    9.99656658018896   31.09720697373878
N         7.00783341360938    8.43705195828115   29.49486609662910
C         6.43096255140253    8.67555326765479   34.19122614145932
H         6.01785239599512    7.66350779019966   34.22359196020388
C         7.17411938997224    9.05884878602907   35.49126175478749
H         6.74368222783877    9.93440742995140   35.98393389862139
H         7.22927771758494    8.23218626561920   36.20444844087928
C         8.56927128461618    9.15206038797292   33.75484657024178
C         9.83004741328457    9.42469742349028   32.98986022866532
C         9.41877089783405   10.31739964149968   31.84050852621503
C         9.98722343879748   11.47237098277891   31.34738572919603
H        10.86049622373757   11.97336993564258   31.71787843910175
C         9.20573156501669   11.86861250141157   30.24846297772366
H         9.36777683568594   12.73280005852883   29.63381618364779
C         8.19400383844592   10.94015807579833   30.12809046485610
C         7.03897796884692   10.85492817215342   29.15546540924856
C         7.01493623342957    9.42914260857404   28.69131288337908
C         7.04405834918922    7.70487977698262   27.27830098196969
H         7.91517312826033    7.40738174291450   26.68896560956904
H         6.13313100310975    7.39307269705855   26.76074427240625
C         7.10392099358875    7.19749076935527   28.73700208485765
H         6.25884821456484    6.55282487936204   28.99446461279191
C         8.39763921802007    6.52144076687205   29.12700107600375
C         8.38201358076642    5.33296459031854   29.84440973393476
H         7.43759018762605    4.88096314615079   30.10561196305020
C         9.57052995821249    4.74292599680675   30.23842396070729
H         9.55081952951489    3.81973834528653   30.79843077910640
C        10.78079374300361    5.33483395324404   29.92038722084039
H        11.70746471632608    4.87269772064402   30.22735633510608
C        10.80116890896188    6.52718708917901   29.21633752883226
H        11.74245781568257    6.99942499854282   28.97629540803376
C         9.61551791803966    7.12246140725944   28.82612511863092
H         9.63976536535595    8.06564254674729   28.29818899003916
C         5.36000936812180    9.64984064668166   33.75911808156270
C         5.64200756513494   11.01077514052839   33.70045111151617
H         6.62171945316168   11.37431784819892   33.97766666619731
C         4.67789793162448   11.90396185850404   33.27031153944240
H         4.90472624502521   12.95918468953163   33.22974242123252
C         3.42932437553157   11.44550621752446   32.88466339023186
H         2.67823573968496   12.14387115083705   32.54605496719499
C         3.15026137023782   10.09028942774668   32.92472409121061
H         2.18162006104903    9.72845958105761   32.61322409869493
C         4.11129784746879    9.19390712461949   33.35941523489471
H         3.90035082581478    8.13578974069093   33.37604410574023
C        10.88634555454528   10.07256514401864   33.87916584297256
H        11.11232085694500    9.43057862275626   34.72737564823603
H        10.53407361793817   11.03036326145977   34.25312547331905
H        11.79569808467063   10.23323066966014   33.30683969387550
C        10.33391002829437    8.08075408262801   32.42968923709683
H        10.61842465780110    7.40665202830511   33.23542205385187
H        11.19329527536834    8.25258359599412   31.78697345103496
H         9.54089623999613    7.61095259711497   31.83650637773365
C         5.72309475627012   11.12163834707006   29.91124998746694
H         5.74808903667733   12.11694226177610   30.34701512945486
H         5.60893213112999   10.38847005760159   30.71828132595609
H         4.86845899092658   11.04517512968435   29.24173009002505
C         7.19535694701260   11.81584796992532   27.98140294535391
H         6.38070238485520   11.68342538492681   27.27325727702337
H         8.13551342423034   11.63781669583599   27.46595348772841
H         7.18349575354275   12.83970354304376   28.34454658979168

