80
CSD_code = LANTUS | q = 0 | S = 0 | Stoichiometry = C30H43N3NiO3 | MND = 4
Ni        2.04964283111065    7.81227594035673   13.38037326047430
O         1.12186850786709    6.50357676097324   12.46824885871658
O         5.34913111535113    8.08561293152754   11.05451511560370
N         3.31389419728103    8.01064989264636   11.92895666175022
N         3.15474827862950    8.91470453425580   14.37402258444346
O        -0.12419395685691    8.67102223712243   16.69553035717090
N         0.80051946075958    7.83847942291953   14.85926465125077
C         1.30101515901156   10.18567017674207   15.39468023461573
C         6.70684343318071    8.04672804978020   13.43690327786830
H         6.93884103510921    9.04866457812658   13.08579593702640
H         7.16383569374289    7.32777191343198   12.76121331055004
H         7.12924071010553    7.91717310660502   14.42965466445197
C         0.09555064169228    6.70001088235764   15.42937888388263
H        -0.65022890767239    6.34921673713891   14.70829338524384
C         2.77541607091530    9.89478861581907   15.23142574654606
C         2.17683787026855    5.92224129080187   16.67813098564036
H         2.67641622903576    6.83476431661666   16.35754418415198
H         2.91719854998560    5.12743788708219   16.72575770401180
H         1.78306684370867    6.07258609998880   17.68171660818034
C         1.88441197850442    9.64617885470587    8.81562274935825
H         2.77345687310821    9.77277202099754    8.20155278757867
H         1.24418115847372   10.51322985343258    8.67171686917543
H         1.35488434332511    8.76130805434581    8.46979173988795
C        -0.03139047639997    6.57997618253832   11.74511071856021
H        -0.06113081341133    7.45079961828866   11.05908740125251
H        -0.93615321665634    6.64836786360322   12.39007590939128
C         3.06308922068491    8.21234328704318   10.51211060159739
H         2.47253667175996    7.37157037187574   10.13768174862664
C         2.25577258255343    9.50376790161349   10.28821741376863
H         1.33498302826061    9.37822038651374   10.87236918365666
C         4.51029002568898    8.86086988430050   14.37058784822317
C        -0.18471449576871    5.30191463874705   10.86934711866208
H        -0.12241928971138    4.43728361891708   11.53123571028346
H        -1.16494679804019    5.32310353404354   10.38992309689696
C         0.32331260199271    4.29639099275635   16.15214254070748
H        -0.17617465706093    4.47031443808354   17.10353348943332
H         1.01666977144988    3.46871525742960   16.27861183800196
H        -0.42553415035252    4.00641275227309   15.41900411063524
C         1.02305452242793   11.14499204245398   16.54676800579523
H         1.42341770835207   10.74830405971087   17.47581180369411
H        -0.04727150433444   11.29600818068089   16.66630874550111
H         1.49402970978565   12.10272283254147   16.34316870857063
C         5.19706338689623    7.83911973908698   13.49363313823179
C        -0.57504271021316    7.31625899547388   16.67652255055584
H        -1.66651523821899    7.31788173249015   16.61337127755693
H        -0.27252633277399    6.84103326619950   17.61174008851663
C         4.48836437805608    8.19888658476862    9.92002768439922
H         4.65635179299331    7.33684911599947    9.26936063365227
H         4.74858542698354    9.11283570188885    9.38287230251527
C         0.90921636858999    5.25690053978146    9.85252331459051
C         0.64866866515058    8.85251409740412   15.62532491492242
C         4.57521309160933    7.97535910603559   12.13293057715001
C         0.75388631053217   10.74599237362025   14.06793714803017
H         1.27123064581594   11.66948268005535   13.82093017729752
H        -0.31468017326181   10.94098076398784   14.13960622019371
H         0.93336044525096   10.01289522580269   13.27063563099918
C         0.71801061156567    5.76258602229531    8.57169632507431
H        -0.25438700513126    6.14271229925802    8.28896424387679
C         3.89551559190372   10.47301612864687   15.79043502326451
H         3.92415413545008   11.27490801265665   16.50251733458995
C         3.20840900088646    4.80233845794857    9.28934614394113
H         4.18132405398968    4.42529699845464    9.57245612031962
C         1.07484963893765    5.54143360944389   15.69201007846796
H         1.53719494239565    5.33941375532669   14.71726492671347
C         2.97769427778782   10.74359710232500   10.81145724658715
H         3.87588117596513   10.95571779126773   10.23533447718455
H         3.25588487729393   10.60807695896451   11.85495212637512
H         2.32277502381478   11.60891587921642   10.74150467832045
C         2.16876474654746    4.78072498481597   10.20214031311499
H         2.32892270058259    4.41077186586322   11.20293659552526
C         3.00505040296480    5.30142076028757    8.01275289238527
H         3.81387749940511    5.31255968503162    7.29586461056104
C         1.75643273017389    5.78290352639219    7.65677885547173
H         1.59185433093453    6.17500702939302    6.66301824049871
C         4.85486333827312    6.42528344467474   14.00273644874087
H         5.33006371597633    5.66713323252287   13.38299730194038
H         3.76510332796161    6.28685417253912   13.96455599830414
H         5.19441901524567    6.31398011964429   15.02956785201893
C         5.00702177633275    9.81365387480483   15.23502975666683
H         6.03764547553786   10.01436236441012   15.45518020063155

