133
CSD_code = LANYIL | q = 0 | S = 0 | Stoichiometry = C65H56N6O5Zn | MND = 5
Zn        8.44669696500811    7.50807738955146   24.57320241527636
N         8.88790184161412    9.28977894729513   25.47630277948481
N         7.48028345159136    6.93839023937128   26.27777049690564
N         7.63627032306195    5.92429111541953   23.59887602268163
N         9.08800589183763    8.25442800419323   22.80261920722367
N        11.75287717447139    7.68473930815522   26.51355511648636
N        10.68592427045811    5.77667771284293   27.30255384891001
O        10.27261096816653    6.53806737438393   25.21345056727572
O        12.51225213711964   10.41279287338837   23.33603210062680
O        11.82590336498158    6.57966984269604   31.07867064253841
O        12.61277214957524    8.61618758483278   30.55982522125064
O        10.33101318731408    3.44580650865063   27.13664901809139
C         9.50572947510200   10.34749631086946   24.89207355315548
C         9.84230992805941   11.32868978506958   25.88753341591496
H        10.33596023147180   12.26191453327780   25.69154443518214
C         9.43417941265128   10.82915960586625   27.07819493834658
H         9.53844660707000   11.27524060679126   28.04811901735408
C         8.81797374678559    9.55831889827442   26.80475969805960
C         8.22585122416306    8.73962110634790   27.76828520469092
C         7.55483349356056    7.54758131279183   27.48674516233329
C         6.77895420190688    6.81499238602086   28.45159185372037
H         6.63810193373090    7.09755920131241   29.47685750233104
C         6.24719804598703    5.75474575648375   27.80018074733596
H         5.59264495753162    4.99938457727810   28.18948316395423
C         6.71404883454652    5.82902433851082   26.44259065960535
C         6.45024236139233    4.86685141700912   25.46787261689785
C         6.91823090742471    4.91607051987241   24.15376596087953
C         6.74257819632609    3.85557997664381   23.19652066392790
H         6.23183666058455    2.93085963248002   23.38405385037049
C         7.36304766940829    4.25150438971251   22.06132491211434
H         7.45776501532130    3.71198859012002   21.13907085637979
C         7.90565731399501    5.55860246874554   22.32025604726021
C         8.59409804192255    6.32365589767525   21.37810681134268
C         9.11340172985851    7.59632669795071   21.61758577268694
C         9.70877904828718    8.43110266426789   20.60651768112157
H         9.83267778124771    8.16070084119747   19.57557251586787
C        10.03868961723827    9.59603983627294   21.20964381492298
H        10.49279677332557   10.46610092045352   20.77546757277382
C         9.65117370964242    9.46944349504027   22.58853084309961
C         9.84783570298269   10.45963074485074   23.54588903997323
C        10.57247814057794   11.68712965689473   23.12933904584919
C         9.92149213260715   12.87448988850832   22.85010323928704
H         8.84446979741032   12.90888652893608   22.91998036659412
C        10.63961023675255   14.00451875625773   22.48872233814603
H        10.12272615817293   14.92636816939336   22.27001955264966
C        12.01780488962844   13.94518329124381   22.41580515130919
H        12.58495423526699   14.82208190864091   22.14071578219438
C        12.69030060724849   12.76474091971026   22.69559429161120
H        13.76764857163670   12.74047410649660   22.63604107048394
C        11.97359173889015   11.62974939363278   23.04501699717667
C        13.90735669925874   10.26656679756829   23.46083869469883
H        14.29434490462712   10.93995292020188   24.23984456534645
H        14.40454441662214   10.51072897044014   22.51123347492589
C        14.19721815255371    8.81021159906681   23.82057818667871
H        15.27496640799799    8.65388716808889   23.74709407228780
H        13.70518318448240    8.17619311899687   23.08151900057709
C        13.73009453108393    8.41269328932401   25.22199443060379
H        14.17504620137972    9.08616073452456   25.95621671399760
H        14.09533440384375    7.40554115352533   25.43607411837428
C        12.20414668194926    8.42106470864175   25.34408570421236
H        11.81926913383999    9.43994500132125   25.34417937986659
H        11.76580731675582    7.92203697631980   24.47814573290543
C         8.29385216938364    9.15365066088208   29.18449223952552
C         7.74815600732723   10.35613576608312   29.62455005065628
H         7.24032339964163   10.99728754116379   28.91874668274698
C         7.82977101304107   10.71722074820667   30.95765452190113
H         7.39835718072025   11.65142194634418   31.28741754402113
C         8.45449985160188    9.88350558185775   31.87067741136433
H         8.51444920267875   10.16759748952774   32.91140943196923
C         8.98998078456613    8.67861101112384   31.44453058273401
H         9.47168867220534    8.01467574513825   32.14721616317993
C         8.90784036962266    8.31673341548130   30.11320924420508
H         9.32448741746581    7.37716173330895   29.78193962477991
C         5.66350399759444    3.67908251767573   25.86747945240565
C         4.41588471308952    3.43644463364916   25.30170950937742
H         4.02196495107827    4.13210357594860   24.57493870531074
C         3.68254222460102    2.32415369685752   25.67300036779907
H         2.71221489617597    2.14864626537518   25.23148458209922
C         4.18951287507363    1.43667675229430   26.60754140821943
H         3.61732927794531    0.56688885136563   26.89511158370257
C         5.43339772608645    1.66798315278437   27.17066748902334
H         5.83538747184310    0.97642616647378   27.89690108743625
C         6.16624490395888    2.78303115139917   26.80644893695033
H         7.14031432982174    2.95871248602233   27.23984409046643
C         8.75842772532903    5.76291559456760   20.01950210790913
C         7.64979005184904    5.50912834829877   19.21742850634148
H         6.66269627979294    5.73297859847632   19.59532176886747
C         7.80848221444889    4.99047143313028   17.94519742436809
H         6.94057253927654    4.80208868182970   17.32990117153308
C         9.07535275426039    4.71381867206896   17.45879710494337
H         9.19810967185904    4.30683396740156   16.46585543661972
C        10.18413624784414    4.96243704120767   18.25041140119467
H        11.17456477609892    4.74712538623483   17.87572202930511
C        10.02788887517021    5.48645739124368   19.52070841559924
H        10.89104619424450    5.67748733106962   20.14194848958432
C        10.86262385995608    6.64085849731288   26.28917902076973
C        12.04080934063581    8.09199863289207   27.80554540194972
C        12.40450294975198    9.52281454136897   28.03039360024884
H        11.83112603708527    9.90652750970924   28.87040264819700
H        12.19784779580737   10.13632425350442   27.16143184365542
H        13.45681537636498    9.60825046563727   28.29534450731044
C        11.92951317541405    7.18921887296732   28.80769694686021
C        12.10237653814621    7.41591560444136   30.24436118129169
C        12.77814833862384    8.92351410639743   31.94442596593490
H        13.84735723300790    8.85763320286818   32.17387886648699
H        12.24222298575067    8.17608293917225   32.53780015311595
C        12.25290057057657   10.32424563951383   32.21351714748963
H        12.79499942908099   11.05055715387813   31.61343787365129
H        12.38336295728486   10.56559896979230   33.26449861083607
H        11.19600095217394   10.38256780007994   31.96370804192009
C        11.57461885354950    5.76359313247150   28.44616791680284
H        11.03391978260507    5.31040834576508   29.28486311669840
C        12.83965583117564    4.95896599402835   28.21538724599487
C        13.43627576477688    4.85986815492870   26.96672131158426
H        12.98083994948067    5.32881225273895   26.10691665129453
C        14.60910254270450    4.14247762905541   26.80470902771051
H        15.05838404033258    4.06598535889063   25.82487622888319
C        15.20359878824371    3.52477010498940   27.89047876529677
H        16.11838925413502    2.96521892281048   27.76210329044601
C        14.61684151053715    3.62530275383493   29.14083197755699
H        15.07381511992878    3.14354508271943   29.99253491526468
C        13.44132864374054    4.33543116973892   29.30165028733004
H        12.98359215491820    4.41723414153430   30.27578569310094
C         9.72266695436489    4.69414211974084   27.20401842062434
H         9.11815020763625    4.69480898683501   28.11909102752735
H         9.09237115179717    4.89716932222207   26.33413141424810
C        10.74473137455582    3.04424194880925   25.83591056155579
H        11.55260812370743    2.32753777839429   26.00630049139279
H        11.14277576371422    3.90205381878849   25.28347395398064
C         9.61484263383868    2.39570863204882   25.04358139456919
H         9.19390565830775    1.56557303903147   25.60513845138159
H         9.99814736360328    2.02603369117563   24.09661652623650
H         8.82521733764943    3.11371762573830   24.83633729653552

