67
CSD_code = LAPCIR | q = 1 | S = 0 | Stoichiometry = C28H28AgN8O2(1+) | MND = 5
C         1.64534788642500    7.13833409404707    4.13651382527515
C         2.02040911964056    8.15732528223519    5.02565537238334
H         1.70771513628590    9.17082491110808    4.82250465832417
C         2.76746261350179    7.87913147318272    6.14417988920903
H         3.00283733570053    8.69377531240677    6.81386419090682
C         3.16984813844094    6.56842363793018    6.42849116920139
C         2.77606344682445    5.54948227320206    5.54937110355986
H         3.07471026903110    4.53845509773072    5.77927477008748
C         2.03805210197499    5.82285319511772    4.42690064490814
H         1.74907256607697    5.02749829808740    3.75648414971458
C         3.94895740453372    6.18110870786115    7.60168171834339
C         5.96890563624744    7.73222269493945   10.05492041836060
C         6.27682874272563    9.12982908600078    9.59978452278477
H         6.40645868139126    9.15960473155105    8.51800365831249
H         7.19415173613763    9.48910820216245   10.05521978433134
H         5.46661966384273    9.80953421448167    9.86781728842141
C         6.53504016912700    7.22043283920589   11.30739355274332
C         6.91358472383390    8.07306726639397   12.34496666250602
H         6.77660115483342    9.13885959012634   12.25734093181432
C         7.16795565410698    5.38113568089372   12.52114965658963
H         7.26433967477252    4.30406060019853   12.54524955823517
C         7.57680827449370    6.15516331958248   13.59522717354904
H         7.99192315226300    5.69293252393756   14.47597541722116
C         7.43812319292207    7.53207447076131   13.50484181514194
H         7.73328870217249    8.17251032196295   14.32190213826616
C         7.23661169488036    2.45327187405447    8.76539927775622
H         6.95972197456778    3.50444560911767    8.90197706285907
H         7.16676344008641    2.20748023720547    7.70756247036467
H         8.26583156842188    2.31205281698381    9.09061772269430
C         6.29857834698856    1.60907715443141    9.56918863877766
C         6.45696981478884    0.14898119426315    9.54341810479544
C         7.46282729339134   -0.46593463543078    8.78856171752700
H         8.14823478281423    0.12020124569842    8.20028016540004
C         7.57154900058929   -1.84508426903333    8.80309635979042
H         8.34212302063753   -2.33473887203423    8.22675317777344
C         6.68284983592812   -2.58884200580694    9.56474188202641
H         6.73710647688144   -3.66440096976314    9.60250461908406
C         5.71588098754839   -1.90186155568287   10.28140362197776
H         4.99334628930892   -2.42322845324291   10.89560769337741
C         3.58058634564205    2.36807026482590   11.70818017250272
C         2.59172125625446    1.60129839920764   12.46726090651201
C         1.80362418430362    2.29950958438399   13.39247701877061
H         1.97242493631175    3.35926772917205   13.50634474026747
C         0.84598918668784    1.66187723871707   14.13886306333584
H         0.25172892918568    2.21371670401123   14.85172622692327
C         0.62412476936304    0.28584474378057   13.98308649331632
C         1.40186587923395   -0.41258077153921   13.04731226788729
H         1.22897387696025   -1.46997160082025   12.91033006934393
C         2.36578679095192    0.22880898755800   12.30750131525902
H         2.92306904501360   -0.34627458320539   11.58368135396741
N         6.66073072390558    5.88718094302263   11.40621689951345
N         5.21548856672053    6.90989947072301    9.42478784800739
N         4.59001014930087    7.19821750420548    8.27973165840851
H         4.62254103861633    8.13409110439120    7.88755757533563
N         0.94256777917088    7.42228603738230    3.01545455176194
H         0.58083867351946    8.34683626515072    2.86629018081212
H         0.59253995889361    6.67794535053884    2.43980913543262
N         5.40868655759147    2.25750982136075   10.23506601877774
N         4.49449422532460    1.63978366788373   10.99573343185806
H         4.54862889037493    0.61088232268288   11.01110439243418
N        -0.29756201023134   -0.35961559279093   14.73836662480567
H        -0.53116441550113   -1.31521622178557   14.53753231027438
H        -0.92698148276801    0.16744899604169   15.31646511242979
N         5.60548771601270   -0.58780519476609   10.27253002254829
O         3.60875649079970    3.59818336256640   11.71973906093865
O         4.07202075607257    5.01960775063003    7.97270697356881
Ag        5.01542147809593    4.65503052078617   10.17901799063147

