108
CSD_code = LAPHUG | q = 0 | S = 0 | Stoichiometry = C50H54NNiOP | MND = 4
C        -2.83173387278104   14.16512200965922   22.21316609798554
C        -3.87030645621182   14.89420892468918   21.55960172323617
C        -4.78754022934345   15.64179848410462   22.32512857497403
H        -5.56074233778654   16.19336390302759   21.80538759981674
C        -4.72190080631179   15.67726255230132   23.69142783745780
C        -3.70761561519526   14.94286578595303   24.33107816533457
H        -3.66512552189075   14.97412404285232   25.41130706870766
C        -2.78476828190930   14.20250325144634   23.64255748504466
C        -1.69781721623686   13.42154817273027   24.33838776200018
H        -1.15330429203642   12.85942492616274   23.57117185149490
C        -2.26608841838168   12.41596164141712   25.34314891407902
H        -2.95468309594525   11.74026560366413   24.82996146825153
H        -2.82678456665888   12.94183269730576   26.11878721002234
C        -1.13946452363599   11.61777549681413   25.99086010462717
H        -1.55465331374179   10.90614832709973   26.70880972179500
H        -0.61357338120612   11.04970187656633   25.22010675484119
C        -0.15428125767229   12.55001369881450   26.68865955912660
H         0.65445509754343   11.96966545899547   27.13917772310237
H        -0.66740403070486   13.08660158051833   27.49060004908914
C         0.41668906803839   13.55294985952574   25.69146361522815
H         0.97333057925218   13.01652954094708   24.91868824961574
H         1.11093226604662   14.22846971734069   26.19752471677917
C        -0.70521923588166   14.35477403830194   25.03987936584961
H        -0.28940343162022   15.05586605203229   24.31265139738060
H        -1.22771372744437   14.93713126725372   25.80248863604589
C        -3.99541831800442   14.90942108814918   20.14705103165840
H        -4.77009335112564   15.58390947598505   19.76665038434218
C        -3.67794617716306   14.50872331626843   17.91089702844536
C        -3.00943927958211   15.53052442477006   17.22616537188082
C        -3.40302207370107   15.82535813496239   15.92983298077205
H        -2.91058954012393   16.61576962660743   15.38581034960873
C        -4.43000232941709   15.12623665682515   15.32499640124861
H        -4.73094942583464   15.37449975184326   14.31765276389088
C        -5.07178553682496   14.11001033085973   16.00594923988025
H        -5.87083926818098   13.57167263095400   15.52116942165682
C        -4.70899729340425   13.78339957435490   17.30409377642774
C        -5.41225469373781   12.67900909739259   18.06033077123434
H        -4.72140527618429   12.32017900156698   18.83461811450907
C        -5.77787488103340   11.49778423814784   17.16022041224875
H        -6.03919499275693   10.63469060313881   17.76980904803978
H        -4.94107553354308   11.23256373515015   16.51966196827709
H        -6.63522463617896   11.73407097072314   16.53432133538795
C        -6.67182239720310   13.21352361230830   18.74934597362261
H        -7.21233533781286   12.39816283688795   19.22631338419474
H        -7.32865805060933   13.68488282038472   18.02067105668977
H        -6.42016981215217   13.94607212451560   19.51208314619990
C        -1.89559461769031   16.29553417114531   17.90525333051796
H        -1.46129905850032   15.63774420549075   18.67350444847259
C        -0.78363821274927   16.69698038550099   16.93531905114904
H         0.09706866982769   17.01171623397028   17.49215215358995
H        -1.09430625598943   17.52933596312717   16.30784125972351
H        -0.51233416262714   15.86132941586544   16.29541750060406
C        -2.44922820328765   17.54304753886774   18.60125647917978
H        -1.63541035398912   18.12564522238386   19.02870113552249
H        -3.13188235480661   17.27408165525348   19.40367662162953
H        -2.98419705471269   18.16659828407774   17.88706488074943
C        -5.69551555169766   16.46774066135066   24.51432396565422
H        -6.39683173955601   17.00195574225908   23.87795237114704
H        -5.17005674482901   17.19206322708161   25.13626025899038
H        -6.25959846204604   15.80905497178225   25.17471209927457
C        -1.57761777407732   12.46007603261356   17.97402262321202
C        -0.59206973221610   13.11785332374731   17.23895546629754
H        -0.01580219786810   13.91747724527429   17.69230770061522
C        -0.32185050027009   12.75856041344390   15.92913386193987
H         0.43954638914469   13.28860839334312   15.37250620069247
C        -1.01072503115399   11.71592159553513   15.33666451044507
H        -0.79808964190735   11.43350569002744   14.31554794249497
C        -1.95751306242712   11.02336799392730   16.06858213191165
H        -2.47949525796923   10.18732841942993   15.62284873051206
C        -2.23127888862147   11.38420970533256   17.37735381684965
H        -2.95601558736596   10.80478173674072   17.93635543910751
C        -1.55825404831755   10.51519558381663   21.65517205653056
C        -2.94109310033720   10.58925906906496   21.51985437562990
H        -3.35567551702017   11.20525288188356   20.72407494011901
C        -3.76908539378129    9.91144006700697   22.39364806019116
H        -4.84221850571009    9.98046814427132   22.28908328669058
C        -3.21683046809248    9.14826110222093   23.41041037384000
H        -3.85908003320516    8.61958538985091   24.09950431632872
C        -1.84094259493433    9.06962799520144   23.54930987429824
H        -1.41346012780135    8.47788632767359   24.34584314218238
C        -1.00979849403838    9.75247287569509   22.67776897236396
H         0.06263831890275    9.69781079121333   22.79967602264952
C        -0.00198281198253   10.13038746154330   19.30795120079683
C        -0.63273337425595    8.89681688519032   19.21498433269845
H        -1.44268906371439    8.65344552737449   19.88870101899724
C        -0.22593357565241    7.98023152824819   18.26096982023338
H        -0.71848360598794    7.02083075134474   18.19461742558343
C         0.80255744460165    8.29210516001639   17.38901263478180
H         1.11175619342551    7.57762566023336   16.64046372427349
C         1.43186156612030    9.52433945981882   17.47359045579360
H         2.23107948076771    9.77170366968466   16.79059572912615
C         1.02944308584289   10.43957636976533   18.42516721281773
H         1.50759412195891   11.40770397808473   18.49130626623841
C         0.95940193931340   11.85376387417770   21.32632976417763
C         1.95101968116801   10.90139594792221   21.54786191703280
H         1.83934608009520    9.90143447283577   21.15074631847474
C         3.08735600985149   11.23997920150596   22.26002218922956
H         3.85252213213329   10.49704725466690   22.43401266963423
C         3.24839564039983   12.52738788888631   22.74753614696006
H         4.13669194679833   12.78542237695338   23.30538668582526
C         2.27352961424421   13.48271525003140   22.51249994068660
H         2.40257527293445   14.48908639352577   22.88346833724235
C         1.13457574278231   13.14811939013567   21.80192298673341
H         0.36663442730970   13.88497342202437   21.61411199300218
N        -3.32488147800363   14.23456204729650   19.26191996738632
O        -1.94547153661156   13.50970032896897   21.56663397124456
P        -0.57412999603951   11.44574528135089   20.43260531777523
Ni       -1.87628477950047   13.01674900174999   19.72595696006233

