57
CSD_code = LAPHES | q = 0 | S = 0 | Stoichiometry = C24H22N8S2Zn | MND = 6
Zn        2.54658198258516    0.69682799398301    3.93841149828869
S         0.53575013399889    2.07711942345620    3.44628898466298
S         3.22795514517936    0.93836084930343    6.32058308582425
C         4.59895539203830   -1.52392037738960    3.79127248037578
H         3.78726679559213   -2.03541343632958    3.29308174625068
C         5.55825676656330   -2.24531678450554    4.51207927064906
H         5.47641130034509   -3.31790108318732    4.59184285339579
C         6.57429596594372   -1.55360881468453    5.11121867482900
H         7.33341164287058   -2.05809814999116    5.69281597203014
C         6.64980088029543   -0.15453377409372    4.95361146873784
C         7.71018287465181    0.59677291902760    5.49529104152032
H         8.47146984871044    0.08643076054861    6.06693074439243
C         7.77046215940485    1.94794771803277    5.28266999856955
H         8.58668709871737    2.52824105863652    5.68667444676267
C         6.77710336617010    2.58681502994967    4.54308016016275
H         6.84420464868068    3.65372760261592    4.38715075795167
C         5.68399750862898    1.90616055384829    4.02479264645215
C         5.61464889660293    0.49193217268993    4.21971421307852
C         4.70897639317662    2.67360768481282    3.30192798073296
H         5.01687168620786    3.66762048247418    2.97427924564400
C         1.45726051960499    2.94860164352920    2.29608017900976
C         1.30948037259815    4.46455109955662    0.35607928847476
H         0.94286320091357    4.18834367022227   -0.63483207121798
H         2.38992264243816    4.35322019186988    0.39126015103113
H         1.04901179139784    5.50815684377255    0.55131353694809
C         2.68401791955736    0.24078264862750    0.95016568545907
H         3.72391879489865    0.48444944853138    1.11714565335830
C         2.07895008462069    0.51296357932283   -0.28279580997158
H         2.64641417377268    0.98968188650918   -1.06653229947934
C         0.76540349925986    0.17155582292015   -0.44970676587823
H         0.24420098135340    0.37156471781869   -1.37566821288417
C         0.07660351178805   -0.47341509374794    0.59794638099341
C        -1.25718832358786   -0.90121174780608    0.45541519584576
H        -1.76989678793047   -0.70712963317097   -0.47531251389114
C        -1.87766114861910   -1.56178271243169    1.48163752730004
H        -2.89731402723071   -1.90100906245096    1.37512817253367
C        -1.19759642896287   -1.80208520072700    2.67397358753429
H        -1.70559493541921   -2.32599135125682    3.47058603817598
C         0.10209497434103   -1.36443701698783    2.88856455571331
C         0.77197727131873   -0.68858541293565    1.82204277637973
C         0.69366960057754   -1.65082855312227    4.16543089385526
H         0.20169470640182   -2.41426651691827    4.76986921021080
C         2.99618510657041   -0.74626627308853    6.51922863070709
C         3.52228134065969   -2.67729653952679    7.95950231994570
H         4.50782114941912   -3.12305300590150    8.10842857918699
H         2.99427591339562   -3.20843547953247    7.17198451909939
H         2.95319209654553   -2.75752276321826    8.88977494219266
N         4.60204310356670   -0.21804172089756    3.67735399799371
N         3.50403665870173    2.29299481092564    3.04392117477145
N         2.76032116961022    3.08860544302441    2.28099838550603
N         0.74386034592356    3.59236435250617    1.35055597345121
H        -0.25553334726972    3.59545271849804    1.48271737433287
N         2.05743788532945   -0.30061207545575    1.96632097394244
N         1.73024413724138   -1.06015520997957    4.65491626985680
N         2.20809432939139   -1.51578007366932    5.80910845448039
N         3.66294335474978   -1.30552714600475    7.54915656227008
H         4.12227387669382   -0.66102811802550    8.17372341245782

