68
CSD_code = LAPKIX | q = 0 | S = 0 | Stoichiometry = C29H32ClIrNO3P | MND = 6
Ir        4.37939236310721    2.66688854388443    3.32514562947338
H         3.72777146302641    3.04493742975569    2.00732404035547
P         6.46530377658936    2.28328730648648    2.51884041901288
Cl        5.40925816643498    2.16521656042986    5.48400314550847
O         2.54911147603725    2.84033384470320    4.31328719011568
O         4.78374968297783    4.62744851987379    3.69521089605231
O         4.33670359158236   -1.50402481094979    3.55497760888905
N         4.08670468910644    0.66369954681424    3.12483867964498
C         7.69135951951646    3.59857517207336    2.75503669985781
C         7.84795777883732    4.09686381472493    4.04732753111588
H         7.27555086240987    3.65865737097012    4.85293715248597
C         8.72279293384457    5.13988727540192    4.28323266529697
H         8.84242340824238    5.52552150316607    5.28520816741581
C         9.44140105551452    5.69536276209104    3.23557490007866
H        10.12245498861257    6.51356881826326    3.42015579679948
C         9.28368886637682    5.20427808488455    1.95029103469522
H         9.84252116785237    5.63784523502212    1.13343506924810
C         8.40821610433287    4.16049099434036    1.70397020596889
H         8.28528686315426    3.78268609655703    0.69888694869329
C         6.66515455083171    1.79771280154433    0.77092029230894
C         7.37159892157639    0.67186923078633    0.36485533076513
H         7.85847991473312    0.04327074162493    1.09733925046847
C         7.45064597022362    0.35410071444117   -0.98083145620041
H         7.99823323044757   -0.52362853523784   -1.29191615683620
C         6.83099391720327    1.15497633143056   -1.92501944387318
H         6.89453998831447    0.90104873480143   -2.97279464934673
C         6.12563423097504    2.27977495672977   -1.52438228782542
H         5.64023350350014    2.90373686109669   -2.26014857320410
C         6.03819317140979    2.59676511956561   -0.18240432219153
H         5.47778356525203    3.45749106652041    0.15500709320710
C         7.15175147621544    0.84536502754947    3.38968216466914
C         8.50154433461324    0.80265304246929    3.71274371820035
H         9.13257376628034    1.63901959199349    3.44623050314392
C         9.04030969034277   -0.28313804982534    4.38208154490385
H        10.08943669281804   -0.29048941360405    4.63807451133181
C         8.22842343970393   -1.35021626819829    4.72686256768600
H         8.63835584469213   -2.19756417339017    5.25554974801678
C         6.88490297859718   -1.32682312672429    4.40449434925449
H         6.24644378077143   -2.15051218173278    4.68282717133929
C         6.32479437912646   -0.23505933751399    3.73814813470389
C         4.89427315442393   -0.28449308933132    3.45933838888897
C         2.93736824394984   -1.36331564726673    3.34533219253064
H         2.42210686607048   -1.57700276162166    4.28723648965022
H         2.62953005300213   -2.09421061533816    2.59566536004827
C         2.76041662480986    0.09670799781151    2.89370863959746
H         2.04374508725771    0.63388626313547    3.52118951870441
C         2.33678933449717    0.27440363663779    1.42141117400971
H         2.32144732459084    1.35268866407014    1.24357985614939
C         3.34036077599210   -0.34770805096867    0.45388683596946
H         4.32369446368966    0.09678469238971    0.59471417242519
H         3.02892187197496   -0.15909529907254   -0.57027228628713
H         3.41827192908757   -1.42449103371365    0.59017525619371
C         0.93000769923656   -0.27590603614085    1.20293702181816
H         0.60254128819155   -0.05884515178938    0.18957008771255
H         0.22922970630427    0.18431365586064    1.89479679845275
H         0.89644664908381   -1.35391469406469    1.34526427813653
C         2.25992351876245    3.81782430483720    5.05231563103530
C         2.97907160345468    5.00534654427730    5.20580667762444
H         2.58951135375414    5.73132924813357    5.90290460338238
C         4.16532719256285    5.32542075064661    4.54508136825231
C         0.98140083688771    3.68818347420605    5.85571233949472
H         0.32604271345451    4.53273445294965    5.65708812851166
H         1.22045782362729    3.67979227963628    6.91726343234848
H         0.47319313724349    2.76286219431630    5.59695607931204
C         4.79195429324532    6.66766634265330    4.85995165252446
H         5.66363408892765    6.81762323708008    4.22852141295443
H         5.09813074372126    6.68652651592203    5.90354543641643
H         4.07512551699219    7.46811092192949    4.69601618290936

