33
CSD_code = LAPMEV | q = 1 | S = 0 | Stoichiometry = C13H13ClN5Pt(1+) | MND = 4
Pt        6.24351524979542    2.10387145244989    8.60489219449276
Cl        7.76888435163329    0.56164022996384    9.08711245737506
C         3.52482258244095    3.29960598228456    8.40464243021047
C         2.54752616641828    4.24104587756507    8.12524479919863
H         1.51328366902965    4.03058642389435    8.34316909500078
C         2.91835887517796    5.44900821940028    7.55304249254533
H         2.17648507955926    6.19511759076179    7.31869527573553
C         4.25992111063883    5.68068625761826    7.28719981174097
H         4.58000487588520    6.60886907995848    6.84266819922517
C         5.18906562619070    4.70513557899775    7.61044186282965
C         3.18966231398812    1.94234842394152    8.98300618079115
H         2.11750544697782    1.85737315161085    9.16328592507568
H         3.49248426515157    1.16954651278512    8.25713336171897
C         6.67274691383631    4.90622319957987    7.39353024952292
H         6.86458474857111    5.87584556001932    6.93269739310029
H         7.17668246206282    4.87021078555525    8.37366552350904
C         3.39133348155287    1.46126018328973   11.44524119892190
H         2.33817856742846    1.44279341229707   11.63923562385866
C         4.45982122662317    1.24986454808439   12.28745458161509
H         4.42896216154656    1.02507013426908   13.33253713700448
C         5.59427221254043    1.38373256191643   11.48565268660496
H         6.62950648428955    1.28521201807868   11.75150418681126
C         7.85212231347387    3.98910813702719    5.36848797095233
H         7.98099473955931    4.93380001473873    4.88054665854185
C         8.24984926857566    2.72610320119614    4.99115535097985
H         8.77524584370867    2.44865213189107    4.10205702740456
C         7.82637618457220    1.88294109141043    6.01950179960510
H         7.94762540845061    0.82129032132038    6.12081914059071
N         4.81792598543439    3.53905993855748    8.15355049887472
N         5.22578736089934    1.65776198577368   10.24164081369064
N         3.88976055418989    1.70556112651614   10.22050635471319
N         7.21409898653741    2.59835517567270    6.95321051899618
N         7.23030548325834    3.87471969157728    6.55517119876335

