59
CSD_code = LAPNIZ | q = 0 | S = 0 | Stoichiometry = C25H28CoN3O2 | MND = 6
Co        2.15999774307816    3.59296880700902   11.24127572728757
O         2.18700330332974    2.91338486281997    9.49387603376649
O         3.51534801165045    4.76378893439952   10.71015890650921
N         0.71220374170498    2.55344521811593   11.71725201934921
N         2.11817457276547    4.25602519372181   12.96430640984359
N         0.70583666820104    5.18863790010128   10.50173700902087
C         0.18755479272175    1.57281203853805   11.05963137106675
C         0.09939066748203    2.96801314112843   12.95890851778799
C         2.84630601313525    5.19551149786864   13.47356075516179
C         1.20597846821399    3.54678619834767   13.83562609916819
C         3.45405764292323    2.16575804343918   11.74135165877122
C         1.62530635460241    1.85119760290714    9.06395013406584
C         0.62274273611651    1.12357218273267    9.78689079222731
C         0.03955731717324   -0.02166491419214    9.21537200775131
C         0.41104393587689   -0.47061032448194    7.97653407858623
C         1.38609568388468    0.23248593015303    7.25724918336033
C         1.96948787295783    1.35449152772649    7.77605613884540
C         4.11007302800062    5.65979417189382   11.39522666543083
C         3.83335943175963    5.93489174790898   12.77566579528728
C         4.54675588519113    6.94646169838841   13.44472469736323
C         5.50400329251175    7.68820632288191   12.80693324435252
C         5.78002602216877    7.43492011525328   11.45668483220727
C         5.10996351703182    6.45956378919307   10.77339004400693
C         0.99140584863117    6.47151999137405   10.69106155981050
C         0.53827254667164    7.48162547232187    9.85823589617774
C        -0.25734056958820    7.14516782934735    8.77560420612296
C        -0.57763754434406    5.81064862663601    8.58734070644845
C        -0.07358306890304    4.87311358256018    9.47357798973649
C         4.71795379685912    2.09078736223881   10.88412538393015
C         5.93018144126058    2.63792124274338   11.63690862686038
C         4.97741979657543    0.64565321954567   10.44740951196736
H        -0.66621683979553    1.04655111643564   11.49594059439487
H        -0.71491562733361   -0.55148115858804    9.78234572465381
H         1.67957420467160   -0.12166397822698    6.27893100258446
H         2.72147127351278    1.90000558003547    7.22642430312341
H         4.32196457951614    7.12946681626308   14.48754693083980
H         6.04451515651840    8.45980194743180   13.33362527748599
H         6.53619391511065    8.02040509934364   10.95270000199935
H         5.32063169325229    6.25724655450728    9.73427642464763
H         1.60814097078059    6.70837089700969   11.54672116237956
H         0.80966339166618    8.50701392205268   10.05527466012690
H        -0.62187679642150    7.90364481475221    8.09832964561650
H        -1.20220703190902    5.49706750192995    7.76543870098626
H        -0.30957352739627    3.82536395044618    9.35056121497058
H        -0.41491611362767    2.13641388778663   13.45713084806826
H         1.74756367006746    2.72559859224820   14.32240738842721
H         6.13548555766739    2.03539842373984   12.52123218032004
H         6.81332936570914    2.62208139650263   11.00125152151573
H         5.75415039901915    3.66374905836519   11.94970237298157
H        -0.03991372475809   -1.35523604075958    7.55338908901874
H         5.87936400741335    0.58970428511158    9.84102876035590
H         5.10805325584888   -0.00007381690426   11.31479464120910
H         4.14404339416361    0.27159760749787    9.85657578636459
H         4.58102832640697    2.68879020661355    9.98007768822782
H         2.70144187009545    5.45540738005532   14.52597883442252
H         3.73560348903124    2.28910403884553   12.79039311988731
H         0.79866471831206    4.20195890461224   14.61545838276046
H         2.90099355290448    1.22773304286045   11.64847919337913
H        -0.63759608007168    3.75210095740820   12.74135854697733

