74
CSD_code = LAPRIE | q = 1 | S = 0 | Stoichiometry = C35H36P2Rh(1+) | MND = 6
Rh       -3.21057689537648   -4.27630854058656   -6.19287843461835
P        -1.70353377797677   -5.96674464098646   -5.88094296983464
P        -3.99798873516158   -4.90192949357505   -4.16157903622745
C         0.06369270431067   -5.51368140472748   -5.81699915523866
C         0.82004612940188   -5.36743740811812   -6.98668700883132
C         2.15567042277381   -4.99870372762806   -6.87548077453891
C         2.73794272090269   -4.75226342966253   -5.64624637027268
C         1.97925119384805   -4.86666106927989   -4.49375454020020
C         0.65255557338735   -5.24075008710697   -4.58276498884608
C         0.25093821656086   -5.61531621339617   -8.34891881485748
C        -1.74229577912343   -7.45901248391641   -6.92102535765228
C        -2.78288957454081   -7.63639233304972   -7.82405673866122
C        -2.85310823745622   -8.78938426487308   -8.58468663277167
C        -1.88150339071917   -9.76687120148450   -8.44556944655928
C        -0.84036052876236   -9.59183508592484   -7.54670691740807
C        -0.76770974263337   -8.44176867640494   -6.78279172505533
C        -2.04477440342519   -6.78333109941694   -4.24097816730977
C        -2.66135495453848   -5.80132968651632   -3.25309137259121
C        -5.31579460768290   -6.13839141666826   -4.36732647043955
C        -5.98630642424810   -6.81100772221951   -3.34131294141912
C        -6.94392017371559   -7.75726615539079   -3.69579976371635
C        -7.23864125118800   -8.03681680304130   -5.01678967885140
C        -6.58007793165036   -7.35964564892215   -6.03164501855826
C        -5.62953936687553   -6.41757658081423   -5.69985585269580
C        -5.72519479507774   -6.56662768928192   -1.88794306501899
C        -4.64308998942128   -3.62974785774338   -3.03938853151195
C        -3.77560390502541   -2.83992919975352   -2.28941862095077
C        -4.27519831982477   -1.80967630102980   -1.51341290014172
C        -5.63594335741706   -1.54789182606258   -1.49674884617474
C        -6.49994413786887   -2.31326165160656   -2.26445359057923
C        -6.00741852285495   -3.34595255806382   -3.03994058654537
C        -3.06833683245029   -3.71737483723547   -8.28697030140165
C        -2.12363026227100   -2.99884304288387   -7.58691497456595
C        -2.80108487236427   -1.69907176182387   -7.15398709366392
C        -3.81524106841776   -2.19500649778333   -6.12551109791407
C        -4.76231024553983   -2.91423988298198   -6.82406857423067
C        -4.33958500260463   -2.86412442343366   -8.29366299338692
C        -3.72674428194716   -1.45509685122013   -8.35850770465946
H         2.74435122515752   -4.90041655306932   -7.77574744234253
H         3.77606506125032   -4.46478667843456   -5.58774382800339
H         2.41850792646202   -4.66497526583975   -3.52891690456477
H         0.07310954698586   -5.32223419733446   -3.67611249272002
H         0.67700695702213   -4.92102405406271   -9.07055192364996
H         0.49423761055284   -6.62605828380586   -8.67808644462441
H        -0.83218107045043   -5.51083468677518   -8.35035037329745
H        -3.53240882302196   -6.86008093462252   -7.92849055442721
H        -3.66141366155386   -8.92606578977619   -9.28693659017820
H        -1.93266755398862  -10.66572038216167   -9.04030042501666
H        -0.08275491644145  -10.35371897660128   -7.44323476437494
H         0.04792435808635   -8.29632957314647   -6.08798248759345
H        -2.77158269633174   -7.57490707431141   -4.45956593590813
H        -1.14139046661038   -7.25604118652760   -3.84687333754523
H        -1.92819571885092   -5.05872358350970   -2.92702044695726
H        -3.04870688439471   -6.31677731618721   -2.37215035263672
H        -7.46691275614769   -8.28227675635784   -2.90998871834050
H        -7.98582205785484   -8.77750028614903   -5.25585272574997
H        -6.81104482099897   -7.56520809718960   -7.06535196995991
H        -5.10513970166422   -5.86177052752005   -6.48297771570740
H        -5.18442902069120   -7.41039040456956   -1.45823363809484
H        -5.15357132739744   -5.65689136310008   -1.72373212520546
H        -6.66829358380638   -6.48038619445848   -1.35136145066547
H        -2.71142095025477   -3.02859774784699   -2.31412385414155
H        -3.60128487300956   -1.20682638896447   -0.92392720183301
H        -6.02218378230014   -0.74362821178708   -0.89020323064817
H        -7.55861009392117   -2.10358606842402   -2.25884027738741
H        -6.67707271374712   -3.94938891792846   -3.63790495908426
H        -2.89317464510689   -4.51415039557936   -8.99851753653169
H        -1.05006741474732   -3.12805209403449   -7.59691777500706
H        -2.14655306168819   -0.89111298250572   -6.84155202932235
H        -3.91700406247570   -1.77067988593353   -5.13512659822684
H        -5.76807831957882   -3.14758630049477   -6.49849692372365
H        -5.09667361434100   -3.12348286507279   -9.02823992102154
H        -4.45421983749594   -0.66289353230000   -8.18578019059888
H        -3.18443984967065   -1.26522688900759   -9.28408979700660

