67
CSD_code = LAPWEE | q = 0 | S = 0 | Stoichiometry = C26H34ClMoO4P | MND = 9
Mo        3.49071792232265    2.36911772919458    0.43746917043397
P         5.56820029027339    3.66878576865098    1.03235437826476
Cl        5.10309750182158    5.38409352253684    1.96525224885694
C         2.32722279610323    1.22066137083283    1.47455393467189
C         2.89167371060673    3.42197957644429    1.94588854917214
C         4.61780764365116    1.04694778264113    1.29141399405181
O         1.68130598255243    0.54947990342200    2.14528934485926
O         2.43018103365933    4.06180172314345    2.77665298578572
O         5.22917274025946    0.19348410283401    1.75221340847045
O         6.28599508537538    2.83875143171564    2.23376232467115
C         3.63197198654930    3.78083062153789   -1.39488934026936
C         2.26504404873536    3.46776584079580   -1.22911152732338
C         2.11043478491020    2.08504490980845   -1.45466014519653
C         3.37907636356367    1.53090785516897   -1.73719612803219
C         4.32199576216481    2.58126174884000   -1.70745662088631
H         4.04775873940079    4.78116604556398   -1.45363838718412
H         1.45978873368858    4.18493052728532   -1.12539034077634
H         1.16748520699459    1.55604779074091   -1.50425972203683
H         3.56122556942739    0.52367001608870   -2.09118257152501
H         5.34826810464167    2.51971598091374   -2.05168495373848
C         7.27594626465763    3.57676485766107    4.28647543907269
C         8.21625901712885    4.38296624687206    4.90479863919086
C         9.25908558839123    4.98254130524325    4.20897048746311
C         9.43817039651679    4.60863677546509    2.89163222282953
C         8.54974902150549    3.77331665826116    2.21571905527696
C         7.39090985676993    3.39360934469429    2.89705189993579
H         8.12624446526899    4.57643758967822    5.95800412241432
H        10.28824378257185    4.98454621712560    2.35347794254405
C         6.22840166687797    2.82748490012397    5.10883108555708
C         6.39632706515107    3.06699906581217    6.61464500021269
H         7.39136436161527    2.78733804985386    6.95300170456585
H         5.67863930354591    2.45014175923660    7.15148854700500
H         6.20165134528927    4.10519364508732    6.87408143131968
C         6.43086999689467    1.32542829266611    4.85609779905050
H         6.28978939656595    1.08080382792973    3.80796481749238
H         5.71406975957995    0.75099545798816    5.43882965598503
H         7.43576479360052    1.02640412131660    5.14889051596640
C         4.79345913564029    3.22133017989910    4.74070994443064
H         4.50375063979883    2.79015635435794    3.78442648300621
H         4.68909052655111    4.30304398644571    4.69485151961305
H         4.10287839313922    2.84343530708222    5.49185141632882
C        10.17704425919722    5.95766546254682    4.92926962833658
C        10.89540099935863    5.22533642069027    6.07108313800066
H        10.18890135782930    4.84336772266284    6.80250698478507
H        11.57876236031065    5.90249544994394    6.57913777754562
H        11.46705809857498    4.38688067494558    5.67879173952761
C        11.23787580330254    6.56179025301031    4.00509299497673
H        11.91222003508656    5.79665973162444    3.62752981731350
H        11.83195553458635    7.28514118362415    4.56000956924426
H        10.77540007500946    7.07820537200904    3.16715096657160
C         9.33145690633970    7.10617495696453    5.49680836387038
H         8.59561155077510    6.74339118317145    6.20851679269817
H         8.80441508348324    7.61563146220044    4.69303586834232
H         9.96938801526954    7.82674697326761    6.00433614451752
C         8.95859971773209    3.29845218551803    0.81749303739712
C         8.71318630067343    4.41030516414176   -0.20966037490911
H         9.28381011972882    5.29933142910787    0.04851551766310
H         7.65867832033197    4.68211561016972   -0.23837226860021
H         9.01538100901998    4.07862535388261   -1.20087428875495
C        10.46458569298350    2.96684881126127    0.82883170964971
H        11.08419181956591    3.85392161290245    0.91424419151819
H        10.73749081228132    2.47460341891704   -0.10207034650017
H        10.69937431743997    2.29777469011140    1.65333518000699
C         8.25593254291696    2.00505728427420    0.38005279903150
H         7.23383415086922    2.17355617810284    0.04703189968834
H         8.23963868360124    1.28303045230246    1.19308898158949
H         8.79601765004670    1.56417277174649   -0.45606615502715

