35
CSD_code = LAPXOP | q = 0 | S = 0 | Stoichiometry = C14H17Cl2NRu | MND = 9
Ru       10.50787678789370   11.07216897293183    1.51118296437058
Cl       11.12726969668552    9.67614001775333   -0.26668612350313
Cl       10.04163634345951   12.72619346621443   -0.08422683093317
N        12.37663214601377   11.73474313229034    1.49140813554795
C        12.64280031845890   13.04322547188045    1.57487468115672
C        13.93153205757773   13.53916007540368    1.62634083077916
C        15.00040408216962   12.65616098719388    1.59534382728172
C        14.72230147948711   11.30019709191821    1.51371359208836
C        13.40638046434563   10.88122350290034    1.46478976915360
C        10.58744463011026   10.85449318899209    3.76135203875141
C         9.68035454505785   11.90583859355673    3.46784909134668
C         8.58169719017367   11.68570783525718    2.61009063386116
C         8.38330469815603   10.39344583207295    2.06092465462853
C         9.26268920966718    9.33080122902437    2.35929804628781
C        10.36308544859910    9.56850657949556    3.22058901048583
C        11.69892390013309   11.07589386212685    4.74705052647722
C         7.63323084961213   12.79633349256077    2.28988294929857
C         9.04000752797930    7.96701444918869    1.78749525612807
H        11.78696553587066   13.70865650807701    1.57018336684310
H        14.08869721798758   14.60442387798548    1.68269705798157
H        16.01757671073202   13.01373188516686    1.62863224416556
H        15.51439304378318   10.56923160990663    1.48063226006529
H        13.15610903015213    9.83057570880452    1.37274592085906
H         9.79872706375121   12.86745851626814    3.95427220481144
H         7.50694259312931   10.20686466071928    1.44842014881111
H        11.00058154125244    8.74222950991576    3.51364188160192
H         7.99602090517129    7.81642282857671    1.52197166644521
H         9.64109573720342    7.86961193354519    0.87812953572969
H         9.35409030948739    7.19371542803306    2.48584448117656
H        11.32883252351468   10.89001086952798    5.75691874243372
H        12.52994114956760   10.39793035559708    4.56080650834855
H        12.06516344437642   12.10046456048550    4.70450031726795
H         6.62525367247693   12.41826187755572    2.13281223938785
H         7.62293151350952   13.54509188520576    3.07914997157762
H         7.96410663245617   13.27787020385730    1.36456839929013

