78
CSD_code = LAPXOQ | q = 0 | S = 0 | Stoichiometry = C32H40AuClN2P2 | MND = 3
Au        4.05365676489833    0.98656088001583   -0.00082777626175
Cl        4.05453432922734    3.69876985865762   -0.00017951091694
P         2.71534147105974    0.94706130260285    1.85875244059167
C         3.36896500054751    2.19477952132773    3.02118805163818
H         3.47450423038980    3.10760954369592    2.42801892803349
H         2.67857292478794    2.39346562020667    3.84551573868080
C         4.73688158424250    1.72069574434088    3.51782023093821
H         4.59136954900706    0.98763050601275    4.31757128404541
H         5.25380641773980    1.19716597306654    2.68401590592639
N         5.52356977772625    2.82457899730016    4.02493161955803
C         6.18817031495905    3.54920906936591    2.95874357841443
H         6.99437217089560    2.95639231708394    2.49634820776235
H         6.61394977343743    4.46539472886977    3.36457570785888
H         5.47627396788858    3.81416439681763    2.18191001733685
C         6.47353926951315    2.41090461689610    5.03532571451301
H         5.94346913759562    1.94010438697807    5.86289425325469
H         6.98877342458701    3.29309496186290    5.41261758254474
H         7.22829434904676    1.70523613568711    4.65137712370991
C         2.58220016014660   -0.55436394538765    2.87039640997413
C         1.95799973087693   -0.54335588804560    4.11448845387911
H         1.52001499754862    0.37248932342522    4.48688336656408
C         1.89488113929425   -1.70350723752335    4.86267448906777
H         1.41016677269920   -1.69523586570592    5.82805828571328
C         2.45147667708934   -2.87712115062376    4.37682628825186
H         2.39965545261934   -3.78096917577778    4.96560159395430
C         3.07399908998470   -2.89193092369333    3.14002859683663
H         3.50820991917295   -3.80619011147738    2.76292735663316
C         3.14004528401850   -1.73178491313502    2.38888390310162
H         3.62739263663161   -1.72280942003355    1.42149001437837
C         1.00773077110582    1.47500765904141    1.57121653999840
C        -0.09887493856047    0.67526230833027    1.83684639607587
H         0.02934113728675   -0.30113850198655    2.28399381546436
C        -1.36626753516753    1.13578269215113    1.52597801797652
H        -2.22675341330175    0.51805721195433    1.73988365875100
C        -1.53326573650031    2.37858500602242    0.93757724338659
H        -2.52568486141960    2.73069839789719    0.69644014751147
C        -0.42836835204084    3.16392611411143    0.64663530654957
H        -0.55539498192815    4.12578381508182    0.17224194677318
C         0.84114238742275    2.71472835513806    0.95539703144798
H         1.71023448700992    3.30855092210355    0.70695126115611
P         5.39433315285209    0.94686827564271   -1.85868538599390
C         4.74048971660206    2.19469059771499   -3.02092228960740
H         4.63494551964628    3.10743113437631   -2.42759032277738
H         5.43082526697572    2.39355354374020   -3.84526693308342
C         3.37258349341381    1.72070265445448   -3.51766816262699
H         3.51816098773837    0.98770300866739   -4.31747267616741
H         2.85565502894304    1.19714852642902   -2.68389039542490
N         2.58594053890882    2.82462434733368   -4.02486285049511
C         1.92124211605237    3.54924156811837   -2.95872201020401
H         1.11491195722813    2.95644912512307   -2.49652929681695
H         1.49557714236262    4.46546453226166   -3.36459514468210
H         2.63303219941974    3.81410526011913   -2.18174427860133
C         1.63600861145573    2.41097822132314   -5.03532206398693
H         2.16607868300802    1.94007307144783   -5.86282856732116
H         1.12086717235019    3.29317912275825   -5.41272283608669
H         0.88116534076402    1.70540442018081   -4.65137970136063
C         5.52741517714085   -0.55453461746991   -2.87047213619810
C         6.15151734901701   -0.54351926616429   -4.11462316234630
H         6.58966753591238    0.37225871394179   -4.48698247907387
C         6.21464166646360   -1.70368854448274   -4.86280188034640
H         6.69943723727816   -1.69545639039303   -5.82814552377789
C         5.65812239807126   -2.87732546919520   -4.37693426164752
H         5.70983566892199   -3.78113231536196   -4.96578828031659
C         5.03571262992877   -2.89216457894267   -3.14007712634587
H         4.60136128974686   -3.80638815764710   -2.76304954585458
C         4.96966892871635   -1.73200967390403   -2.38893957089003
H         4.48226357896056   -1.72301477312975   -1.42157372939482
C         7.10184221849174    1.47511927058908   -1.57126252931264
C         8.20841305656532    0.67535331836751   -1.83689625919927
H         8.08010368404047   -0.30102672573662   -2.28405271713716
C         9.47580044537147    1.13578128173784   -1.52596752855060
H        10.33625065839272    0.51805298552779   -1.73997633252548
C         9.64282100704325    2.37853871736066   -0.93747574048250
H        10.63524872538881    2.73066708272537   -0.69640923188190
C         8.53794252302916    3.16388661844205   -0.64648119783406
H         8.66500158307587    4.12567742829085   -0.17196393329715
C         7.26842135513003    2.71477642939123   -0.95532303270126
H         6.39936907405092    3.30854802366551   -0.70662010666120

