51
CSD_code = LAQBIP | q = 0 | S = 0 | Stoichiometry = C20H22N6S2Zn | MND = 4
Zn        1.25417768099523    1.58624778362080    4.03616821832292
S         1.03153277285303    2.67717894470270    1.95546579901542
C         1.48550798751986    1.38967796196076    0.92493086962676
N         1.68578892111606    1.62670160115339   -0.38442613443193
C         1.59228564289511    2.89023813224690   -1.05153677942994
H         0.56441620178430    3.25715130969443   -1.02700844762770
H         1.91238395731146    2.74363320108727   -2.07998380127180
H         2.23088030237931    3.62169670567056   -0.55416709273704
N         1.99973097387662    0.51156733218125   -1.06587890949310
C         2.00132074708080   -0.47560348086062   -0.20620585075278
C         2.31722488970801   -1.86855103174298   -0.61412775100883
H         1.47851111171539   -2.53020355765062   -0.40019828602611
H         3.19089548407478   -2.23514087294458   -0.07670828660394
H         2.52185870422233   -1.88657284114797   -1.68042755203236
C         1.67917091193505   -0.00287830669294    1.10490503343812
C         1.56321824098936   -0.79780544353452    2.25650245866421
H         1.65135958013819   -1.87786255266062    2.10458785085075
N         1.35205374059613   -0.34355531145107    3.44462004671934
C         1.13894189254425   -1.29898197093043    4.50950200138743
H         1.37227581874514   -0.80196995531546    5.45723606733332
H         1.82388747532686   -2.14853399489222    4.39276281783259
C        -0.27655340618551   -1.83508353792643    4.57365869063349
C        -0.42000393116199   -3.20573198678341    4.77104013255675
H         0.46735241719146   -3.81807188426524    4.84947492644967
C        -1.66077038412997   -3.80433921875140    4.87245603143117
H        -1.73619581847718   -4.87015518524504    5.02598472404387
C        -2.79864461563170   -3.02552264951481    4.77191580131230
H        -3.77863909320473   -3.47206285245017    4.84568709398974
C        -2.67132286341806   -1.66371513444463    4.57901336164306
H        -3.56299343655832   -1.05757952755805    4.50137052675954
C        -1.42747472668846   -1.04652794886899    4.47832524396872
C        -1.42624361566986    0.44871467149115    4.23632545662098
H        -1.20262472244180    0.63522999050495    3.18040354476933
H        -2.43338116692739    0.83214793592371    4.44348871704370
N        -0.45284760291599    1.16899158671928    5.02749843360360
C        -0.74211171145366    1.42332869080616    6.25808212492772
H        -1.73246949764900    1.15791403206578    6.64008260229616
C         0.13427246474830    2.01681712231241    7.18056507934345
C        -0.19323902139783    2.38176028652318    8.52452378253275
C        -1.50554043684736    2.24283682821105    9.20642625024386
H        -1.82302534772947    1.20072554113789    9.21772345039174
H        -2.26692079974269    2.82933048041519    8.69365436154679
H        -1.41174511655507    2.59802059892973   10.22832551867179
N         0.84887087299943    2.89088775585787    9.13127182530658
N         1.86311640877962    2.87849057843228    8.24939738993354
C         3.15600831954152    3.37270708407147    8.61614784240217
H         3.89234803271530    2.56701015456408    8.58544999466181
H         3.07996528740236    3.77316628872449    9.62423308752854
H         3.46927405607422    4.15226137935978    7.91945623532333
C         1.50180503239901    2.36913753120431    7.05737304608234
S         2.66881138512877    2.22487773605740    5.81513245221042

