69
CSD_code = LAQLIB | q = 0 | S = 0 | Stoichiometry = C32H26Cl2N6NiO2 | MND = 6
Ni        4.82318864776906    2.48867290783132   12.97689390532899
Cl        5.29102387606888    9.07088072783113   10.21869023870766
N         6.12259499399776    2.85634080001388   11.06347698407149
N         6.12012328541875    1.15902064241489   13.61332284811725
N         8.01245919542101    0.02209456640113   13.44779493218888
H         8.78897740637983   -0.45826550174176   13.02424007682955
O         3.71477136844042    3.80976797314362   12.17559284668041
C         7.15835078153231    1.92071596008427   10.70341363586807
H         8.14606826725169    2.26301531457220   11.04579108993613
H         7.20146940023559    1.81372721914911    9.61053917914483
C         6.84429184186395    0.53992906070578   11.30967716480012
H         5.81821560492999    0.28539318480056   11.03878626342457
H         7.52797736831579   -0.20812214584775   10.90301646980931
C         6.96011527351188    0.58094957595725   12.78924853754732
C         7.84304842083392    0.27104355170920   14.78825918463879
C         6.64131577967387    1.00421842563603   14.87890479143071
C         6.18444889124774    1.44258787140156   16.11692348594028
H         5.29027023155077    2.04091151321312   16.17396854112562
C         6.93626193038306    1.11770929711027   17.22633545102784
H         6.61298296060693    1.44876860416913   18.20183493084826
C         8.11597343505176    0.37679709216199   17.12653194901702
H         8.67150423851258    0.14699887061199   18.02323778378165
C         8.59377898954405   -0.05633837020668   15.90594185054248
H         9.51288861449505   -0.61659823002331   15.82398811161892
C         6.28712867391601    4.08863758343294   10.75595512727848
H         7.21013702466972    4.40803243099694   10.24883050708293
C         5.34164451262940    5.13784913025219   10.99531257644220
C         4.11613395711391    4.93040843170187   11.70807391130829
C         3.28404707760195    6.07049693526863   11.88714206284772
H         2.35433237585418    5.91894615039148   12.41468047679605
C         3.62764078465602    7.31397552091337   11.43383012057932
H         2.97898669847179    8.16057775287860   11.60057045782539
C         4.84000993954823    7.48913249717368   10.76687291479162
C         5.67635474408891    6.42399346233089   10.55084117823307
H         6.61222752524702    6.57454881016961   10.03126095815595
Cl        4.14123161580077    9.09574320696210   15.58506780048370
N         3.51673701533039    2.83505603662493   14.91023967035576
N         3.51471664201063    1.14094496360521   12.33347174833983
N         1.58237270052704    0.07432867737582   12.50821768264571
H         0.79302238759646   -0.38095072470979   12.93568844988933
O         5.90988387517046    3.83029803657736   13.81374484364440
C         2.49505306974538    1.88543536009965   15.27322295771429
H         1.49468108208509    2.22668723673566   14.96662537975634
H         2.48440668954832    1.75673316799954   16.36449051788249
C         2.80083285336961    0.51623123035200   14.63646321085690
H         3.83100413153414    0.25873815238377   14.88738123624845
H         2.12350462830230   -0.23900061780467   15.04059017748390
C         2.66378032394426    0.58340938653481   13.16018858272626
C         1.74350019221329    0.33699197037825   11.16932522060361
C         2.97162080267846    1.02443404638733   11.07305241296949
C         3.42947211840308    1.46282768095221    9.83551008024133
H         4.34533737691350    2.02667738557851    9.77224622934982
C         2.65057985062904    1.18603773640001    8.73173235222874
H         2.97373834103111    1.51999865940295    7.75717310543211
C         1.44374014058421    0.49119732412877    8.83689530477895
H         0.86728543376865    0.29852405639295    7.94467156282897
C         0.96571030315788    0.05744202833865   10.05724615377049
H         0.02626129356960   -0.46738074179251   10.14302373954095
C         3.30885587344603    4.07127335726993   15.17523289705120
H         2.36037472384261    4.37895884540703   15.64165752973121
C         4.22933032025505    5.14154500634897   14.93092859460751
C         5.47001962171736    4.95356927886945   14.23835202163576
C         6.26348076864017    6.11550518236136   14.02753003293864
H         7.20240761530792    5.97967221285489   13.51197711618805
C         5.87425907230006    7.36000691857496   14.43958444017793
H         6.49510169705253    8.22296028533398   14.25192609730912
C         4.65071007381101    7.51386510978845   15.09111781697044
C         3.84719816443379    6.42859771407221   15.33144962977714
H         2.90074508446089    6.56432421358919   15.83589486009978

