56
CSD_code = LAQMEW | q = 0 | S = 0 | Stoichiometry = C19H32ClORhS2 | MND = 8
Rh       10.59743915842700   10.18273275534353    0.47167143046358
Cl        8.93976256397798   10.08293329935114   -1.13499359762487
S         8.85296635066577   10.24550758164730    2.11671283224505
S        10.04327784883093    7.90701187592906    1.00803649634716
O         7.81189128916527    7.89301994807922    2.45821469609258
C         8.78937219293788    8.57744376828612    1.91348598199660
C         7.75533130381212    6.48927599630701    2.20892320984405
H         8.68294997037810    6.02607336803241    2.56783447522841
H         7.68601233331552    6.32682048121951    1.12660195052464
C         6.53944730069137    5.93179546868603    2.93346024231855
H         5.66990969107180    6.51271052746309    2.62762449955772
H         6.39375596906069    4.89702052838021    2.61968257564023
C         6.71059352822519    6.00232421369003    4.44938332459517
H         6.87711998547372    7.03979368989218    4.73907339586842
H         7.60238421075221    5.43468151258557    4.72839683914249
C         5.51789025445824    5.43295594112776    5.21790716859576
H         5.38250975810458    4.38630269874877    4.93306424722043
H         5.75725009980829    5.45514988393055    6.28390502777477
C         4.19649971119513    6.17258856173099    4.99966447231836
H         3.42761928211322    5.67116690481616    5.59367180148138
H         3.89468486633426    6.09522128634273    3.95369169269951
C         4.24904950614140    7.64366569337461    5.40605089611140
H         4.63357511965968    7.72254866324724    6.42606199353995
H         4.93040735029933    8.18650788616185    4.74900920108216
C         2.87304308594158    8.30214026303902    5.33603917709323
H         2.18435087866670    7.77493915141071    6.00071460408336
H         2.48276744709126    8.21412304238395    4.31946802150350
C         2.93076767897892    9.77311088359802    5.72946901678970
H         3.30091285387947    9.88144412066699    6.74675143546782
H         1.94286976742702   10.22455327933196    5.67397150032213
H         3.59568432685138   10.31936546591742    5.06427972111368
C        12.53681237540207   10.64262961545822    1.37958333808550
C        12.76556132247464   10.03363184356541    0.09478210016738
C        12.16364109905059   10.85754811237470   -0.90022092508105
C        11.56850804547306   11.99363501881504   -0.23559871737104
C        11.83564988234563   11.87371501486547    1.16398719289968
C        13.14607990025200   10.19932654582789    2.67137091154223
H        13.23658667580584    9.11624536862976    2.70986422991604
H        12.54695642173691   10.52570220775638    3.51814446179769
H        14.14428958496606   10.62999217311044    2.77110995833245
C        13.59962675956960    8.81811599905706   -0.15040082796435
H        13.27930047397366    8.29766978303513   -1.04979129929836
H        13.53828100227816    8.12556733808304    0.68575511686474
H        14.64242305136564    9.11633007082619   -0.27414395925143
C        12.24642124653840   10.70115636795568   -2.38354441510695
H        12.83459402169763   11.51858102314161   -2.80211846558808
H        11.25203750131217   10.73713545079910   -2.82595244793346
H        12.71182205538213    9.75820155270125   -2.65496636756940
C        10.97789151397198   13.16813544435661   -0.94524597275343
H        10.41598995532271   13.79974195205271   -0.26246798310530
H        10.31149455379537   12.83606663973340   -1.73885880061254
H        11.77680611866067   13.76151982766610   -1.39392821912266
C        11.53401076367537   12.89953886277415    2.20673391741564
H        12.37610875913441   13.58971488270273    2.28399394399248
H        11.37753676228597   12.43831331116754    3.17857284472993
H        10.64407446970472   13.46915685284051    1.95051205565083

