35
CSD_code = LAQMOG | q = 0 | S = 0 | Stoichiometry = C10H12F6NiO2S4 | MND = 4
Ni        1.97506812902947    0.10078270803300    7.59752453430982
S         1.24048915036363   -0.14788885680869    5.50561885588368
S         3.82839733857984   -0.65872877206542    6.61968114147237
S         0.11866309696254    0.83104679464598    8.59501680672099
S         2.71477559904445    0.32549670949714    9.68842997670864
F         6.11998008653290   -1.10237894874871   -0.09495242694974
F         4.27280045672642   -1.96647713086536   -0.77653220228047
F         5.50079236741156   -3.03027433756569    0.62918781312119
F        -2.13824782432319    1.60856593581193   15.36921195711716
F        -3.63500936572453    3.06945173127921   14.87264926528876
F        -1.56982952604721    3.64983334068693   15.01063356243877
O         3.25725695103287   -1.24325847328357    4.15390177508446
O         0.75067989801493    1.18367521513300   11.15793718097864
C         5.05365851198187   -1.80928881524850    0.30473322996206
C         4.32103549097778   -1.13544599346534    1.44706835006658
H         4.01206194878595   -0.14691147856941    1.10209226671587
H         5.02231494865041   -1.02158053729768    2.27518775477337
C         3.11365928837907   -1.96618435643773    1.88356496533951
H         3.45083327229173   -2.95314166860074    2.20428636900232
H         2.42174411779434   -2.08774204153987    1.04926643436510
C         2.37490969128533   -1.29894439408125    3.03419252649805
H         2.06469209437989   -0.28026713009895    2.77308263693989
H         1.48183965150447   -1.87188927193829    3.30761094347708
C         2.80747870447713   -0.74303726003049    5.28130827715690
C         1.12859271362420    0.82772332278641    9.95173514330804
C        -0.59717860931479    1.60056965910706   11.34856750769449
H        -1.27187038150622    0.79691279422503   11.02930818707016
H        -0.79355543660896    2.48101186728668   10.72476166772652
C        -0.77753153090900    1.91835285461963   12.82710528242244
H        -0.07676459855389    2.70604520546791   13.10862544622451
H        -0.53731107904802    1.02866596044298   13.41167315010573
C        -2.20934411646739    2.36369473506367   13.11794268722844
H        -2.45981296666279    3.26800425165480   12.56037951034449
H        -2.92362096347375    1.57999017290396   12.85889694401505
C        -2.38544710919238    2.67221620800068   14.59250247966795

