91
CSD_code = LAQNAV | q = 0 | S = 0 | Stoichiometry = C39H49AuN2 | MND = 2
Au       -1.03418894528541    7.25703800338322    6.04175539691664
N        -0.98638088226411    5.35616411329464    8.16454620073729
N        -0.39398511624947    8.90621290455247    5.07874799538988
C         0.06398166202640    7.17602702910446    9.44310716365721
C        -1.63232065614334    5.65964610257447    7.07266882366751
C         2.47141521977949    7.27792975645913    9.57295624438169
H         3.36454763434373    7.72965543019518    9.97761102474326
C         0.49347680007448    9.77004988435998    5.68247436610436
C         0.17803092924714    6.06763726751147    8.59356066996694
C         1.43501393545672    5.63858923522982    8.14007371084629
C         0.48012796105479   11.15154247924092    5.43254544404065
H        -0.22508254653099   11.54879596832055    4.71615943391725
C        -0.83916906462126    9.18976085725496    3.80213767870556
C         2.21906223283263   11.52085209763291    7.05055720279456
H         2.88267860349628   12.19371505280739    7.57395330074724
C        -0.00312614280630    9.76299750145445    2.83274216296141
H         1.01153412228217   10.02097560977635    3.10220591353489
C        -1.25745903123112    7.83252976002593    9.77001306443649
H        -2.07016771862919    7.22776725146448    9.36068249708899
C        -1.49279074408468    4.19688374904598    8.93028314079393
C         2.56920442098048    6.25348107741605    8.65284079483582
H         3.54318796365113    5.93258495888004    8.31939581434431
C        -1.32002375431564    9.20518606180012    9.09122496986236
H        -1.21127049942910    9.10459175966328    8.01287371031197
H        -0.52450145617602    9.85413404529828    9.44712321863084
H        -2.27622812516046    9.67930259821643    9.30130175411777
C        -2.13410438159361    8.83523577262087    3.40738716564669
H        -2.79786386467801    8.39500957043893    4.13866550265040
C         1.32770686764338   12.00454476849371    6.10524790464771
H         1.28740161182655   13.06509543632398    5.89642314239653
C        -2.76793767195204    4.67604520598940    6.87404237383507
C         2.23847387825732   10.16206546729066    7.31702665741671
H         2.92354985902036    9.76264807992679    8.05286125115094
C         1.39175184667023    9.30261290180539    6.65020942611715
H         1.41691693836408    8.24459346120539    6.87216074346472
C        -2.57491274686358    9.05151081334121    2.11873205292112
H        -3.58442547098064    8.77245470629457    1.84741015668201
C        -2.82135505701045    4.08063538764519    5.44953073268003
H        -1.85688421968591    3.60568619153035    5.23013065757224
C        -0.44962977518403    9.97560060910998    1.54607939306668
H         0.21983060547243   10.41282742249202    0.81767957398151
C         1.22804764261983    7.75494761295794    9.93278028535990
H         1.15857251535992    8.60253317014169   10.59537873597224
C        -4.13815910963910    5.35755792820446    7.12026069129734
H        -4.13664570289678    5.82011552233778    8.11440715103576
C        -1.73905575073242    9.62645924889858    1.17601972672451
H        -2.08489086627357    9.79618342454349    0.16688997521534
C        -3.10891689300374    5.13857892015628    4.38597004116288
H        -2.31095835770404    5.88230185096935    4.36001317980260
H        -3.14321874537568    4.65696235754512    3.40609684925216
C         1.60259989786673    4.60604122259762    7.04736287524197
H         0.63518872945145    4.14181261579068    6.83583951108292
C        -4.41529421134912    6.43506706897068    6.07047970445666
H        -3.64998272866740    7.21210386590958    6.11598174042480
H        -5.37916024247674    6.90220775591501    6.28769970055646
C        -5.27562389023879    4.33575271481203    7.03871071270038
H        -5.18680178155014    3.56726234097841    7.80807722752424
H        -6.22257172105803    4.85249024440883    7.21196722878937
C        -5.55863917681109    4.76827816882643    4.60471449185736
H        -6.52821431897277    5.23557638219713    4.79127612728595
H        -5.58853165990378    4.32229310284426    3.60836456389456
C        -3.93676753173928    3.03179544275037    5.38049045799684
H        -3.94285221014173    2.58551516638789    4.38363374090517
H        -3.76585808574931    2.22756541417909    6.09816816576492
C        -5.28844189694890    3.69183370397540    5.65370540612829
H        -6.07738293832654    2.93220253949928    5.61324776179484
C        -1.47247268759175    7.99753506012421   11.27748621711398
H        -1.29797268256000    7.06766230178856   11.81400758641507
H        -2.49336831436398    8.31864729054669   11.47140944187598
H        -0.80231431235625    8.75077078137371   11.68253974304464
C        -4.44607187755205    5.81277728372692    4.67616640354038
H        -4.62730494470994    6.59541524352665    3.93261793864171
C         2.06381151307547    5.30139915060490    5.76182379788485
H         1.32743391358127    6.03781233962425    5.44066641695134
H         2.18818265812595    4.56894113572988    4.96724499169942
H         3.01153242389269    5.81101011984313    5.91590374861576
C         2.60429777242839    3.51091560814259    7.42785378334119
H         2.40519408394999    3.11464547138891    8.42076658800476
H         3.62058860019170    3.89502285614533    7.41473738707430
H         2.54895059079473    2.69443977346249    6.71084641687392
C        -2.45301103186550    3.57249807276345    7.91567205104775
H        -3.33888240529723    3.18957925046385    8.41174156236993
H        -1.95841920419064    2.73880359998382    7.41393812666516
C        -0.37725391568934    3.24232344023376    9.34623944622590
H         0.09892869969853    2.78586981323887    8.48449587595613
H        -0.79916450252772    2.44831626460690    9.95825428381169
H         0.37592834418405    3.76444988679601    9.93242112635290
C        -2.21824138912284    4.65510725761154   10.19670311846170
H        -3.03364337127998    5.33578941981864    9.96913786479035
H        -1.52245882385030    5.14690143183016   10.87017824794561
H        -2.63219532432528    3.78861301137537   10.70738335133936

