51
CSD_code = LAQQID | q = 1 | S = 0 | Stoichiometry = C20H26BrN2ORu(1+) | MND = 9
Ru        4.54153891766290    6.52329038717151   18.55141135933776
Br        3.65803400903486    7.76227752650539   16.60175366061818
O         5.89687226227102    3.55852364479883   16.06718675482417
N         4.68602588074877    4.81217707775529   17.46391539045946
N         6.33058372920290    6.73087721416495   17.65711271662130
C         2.73460976884264    4.65095807674602   15.07209452228328
H         3.61627039795794    5.28348104549928   14.99792763520393
H         1.88286998347191    5.24328956497605   14.75169518074925
H         2.83697048746769    3.81608612118794   14.38366827911830
C         1.44924665047935    3.07802632080055   16.55170173379722
H         0.53008039034461    3.43832661957220   16.09902850493647
H         1.23265454596329    2.77641629214928   17.57420191679395
H         1.77855135605931    2.20090827481030   15.99971319310997
C         2.50872283355037    4.17395764864804   16.50469081740143
H         2.16552490729645    5.03150970499877   17.09885850138673
C         3.80946338891696    3.68574331140750   17.18256544346032
H         3.54463446521555    3.19134963797328   18.12295262446989
C         4.71509304779680    2.78039145702215   16.31415676273991
H         5.01566331412190    1.86516192020878   16.83035636524526
H         4.27078874122014    2.52386880229944   15.35285717471377
C         5.77045364142299    4.67061192538989   16.77002163405121
C         6.73637734907669    5.74164952710092   16.82491080373796
C         7.91545587348875    5.81069827415955   16.08967320922299
H         8.17617590156599    4.99186379065034   15.43899296473079
C         8.70086942428421    6.94210554587371   16.20812195308409
H         9.61904885184568    7.03558073732725   15.65136722456152
C         8.26845114603588    7.96897989818682   17.04146535899122
H         8.83831111594340    8.87835267212075   17.14078730245474
C         7.08217126582884    7.82705575592141   17.73785110949105
H         6.70610090530418    8.63080788263608   18.35825218949964
C         3.36517665516385    8.05211623803521   19.93377775279658
C         4.71225116785551    8.01700805001447   20.32288588379544
H         5.24889873248329    8.94966990844616   20.46354484592478
C         5.35443682204061    6.79099002921565   20.65057446373715
C         4.60117227705925    5.59725888124480   20.61571912963896
H         5.04889559051787    4.67730929903521   20.97749855383850
C         3.21982231141725    5.61058060565030   20.27583762949580
C         2.63841221598735    6.82225340168486   19.87464317227436
H         1.57803372787958    6.85752813204775   19.64295387310881
C         2.66135934831422    9.33909291248512   19.65674888822018
H         3.32509874656206   10.19070654499113   19.78248749126017
H         1.81371916142460    9.44660507576641   20.33318034288210
H         2.27265479113711    9.35342103492184   18.63735542472178
C         6.75757173400970    6.78671736204059   21.17247538581343
H         7.35055858998107    7.59136197058932   20.74291419828913
H         7.25225537261642    5.83780436342334   20.97469186095633
H         6.73371285781349    6.93273505215639   22.25358185755904
C         2.37657827766962    4.38715089863622   20.45516076561217
H         2.97270958137561    3.47784977964158   20.43163679483562
H         1.59250603728822    4.32907762290645   19.70330848111606
H         1.89386144898545    4.44153617901140   21.43273091702235

