51
CSD_code = LAQQOJ | q = 1 | S = 0 | Stoichiometry = C20H26BrN2ORu(1+) | MND = 9
Ru       -7.48158825300385   -7.26506789895054  -10.12633279496165
Br       -5.16140394261314   -7.63799118377355  -10.91094232148297
O        -6.82925960620943   -4.05316393897690  -12.56172871758486
N        -7.62459778498076   -5.95329267942512  -11.69383274379977
N        -6.76082050967144   -5.56175744465232   -9.32419542592604
C       -10.05100848040446   -6.05145572848700  -14.63029507116524
H       -11.13571607134783   -6.09666577206462  -14.67533439531827
H        -9.65185615089684   -6.95183237579039  -15.09050378306945
H        -9.72740109163924   -5.19588749159938  -15.21626927709559
C       -10.15952772174256   -4.68239844894900  -12.51143125328864
H       -11.24568934107644   -4.71084994468132  -12.53559599028290
H        -9.84082258184154   -3.77789797184429  -13.02256163386432
H        -9.84277185580680   -4.62178491107736  -11.46994239341557
C        -9.59843441748266   -5.93691656485942  -13.17800187838735
H        -9.97676948260368   -6.80485415291891  -12.63250402006004
C        -8.05831566904349   -6.00332904922183  -13.08326686902459
H        -7.71165853084296   -6.93908706139533  -13.53539640020648
C        -7.33097568014845   -4.78144144360376  -13.69118224097540
H        -6.47889394564602   -5.06840560125158  -14.31311988914271
H        -7.98729291918054   -4.12211754641855  -14.25772280064422
C        -6.98796244881577   -4.83768853925152  -11.51279866569052
C        -6.50306488553791   -4.54748737147489  -10.18641942993690
C        -5.82867336505277   -3.38793587484968   -9.81509977346099
H        -5.64354102258571   -2.63076751978156  -10.55950188904225
C        -5.40447834465457   -3.26194530726471   -8.50675803416376
H        -4.87120490619350   -2.38378641673591   -8.18095162088204
C        -5.66454986674010   -4.30454550400327   -7.62189577029609
H        -5.33904437891999   -4.25266058610501   -6.59569814868157
C        -6.33158740484182   -5.42940557090357   -8.06876852417917
H        -6.50585123820914   -6.26230828327052   -7.40044805665800
C        -7.39292449250657   -9.30921248039570   -8.96516010068067
C        -8.06820422158956   -8.37669626837499   -8.16804143745434
H        -7.78139058893362   -8.26045959701626   -7.12762035554174
C        -9.18759359409626   -7.65068921229314   -8.66166629253634
C        -9.65473101629389   -7.93288661610359   -9.96465627523952
H       -10.57768735907835   -7.47105144774009  -10.29982294139397
C        -9.05259955817884   -8.94751139820625  -10.76182649687057
C        -7.89004653940015   -9.56321832986254  -10.28179059998461
H        -7.41748260292337  -10.34423819115480  -10.87089533386073
C        -6.24410527876618  -10.10981506588894   -8.44437050695841
H        -6.51509404879517  -11.16522515127438   -8.41831883154056
H        -5.96058734638735   -9.79629874608013   -7.44284826110132
H        -5.37799841532002  -10.00919000095359   -9.09945320995275
C        -9.95056049286129   -6.72849710519726   -7.76124517612724
H       -10.66729705578802   -7.31069259988666   -7.17939840390428
H       -10.50557106089213   -5.98743143895927   -8.33272101673928
H        -9.29379201002186   -6.21521428973087   -7.06133661419213
C        -9.68342644851488   -9.43607936036831  -12.03083875384232
H        -9.94864333660196  -10.48698341754845  -11.91140279838324
H        -8.99203037327222   -9.36981007966968  -12.86953628136458
H       -10.58887226204765   -8.88527101971397  -12.27115049964283

