50
CSD_code = LAQSOL | q = 0 | S = 0 | Stoichiometry = C8H29B9N3Nb | MND = 8
Nb        9.08734606223066    9.65249109154965    6.77250290931433
N         7.59306317761428    9.04532939596207    7.97854805301356
N        10.28209150532455   10.78335635432173    7.82170380022805
N         7.90882596869899   11.14431847095331    6.05863543794338
C         8.55657449841828    8.33464789584559    4.50191484998388
H         7.57732650557278    8.72447169125638    4.21523826585696
C         8.58764702735822    7.31066393297289    5.62677296762931
H         7.63694123427817    7.02714840996691    6.07753824956200
B         9.98603747588243    7.45157904276239    6.53285250434725
H         9.95154698644906    7.08755619553975    7.67970523932429
B        11.02830423906403    8.65098958479881    5.75482994649040
H        11.95932979397483    9.21896743768273    6.24339360088331
B         9.95077207184092    9.28914651912331    4.51967073909878
H         9.95858956572617   10.35358780980722    3.98222649984005
B         8.78205154900237    6.67319633638107    4.03039390525324
H         7.86170743758454    6.11933970846466    3.55085081314287
B         9.73841023855440    6.07946186651439    5.38109920426271
H         9.50667261319925    5.01459103973538    5.82982727116807
B        11.28266034528477    6.91847851248008    5.40251013829628
H        12.26319618553303    6.38578676152214    5.78454918132199
B        11.25916290429523    8.10450471862913    4.08182529657830
H        12.21612678313056    8.44675036430463    3.48481972689551
B         9.68248136251028    7.98502230181120    3.28457312197281
H         9.43126086728236    8.31952043163543    2.18352818462601
B        10.51353388675472    6.50540608859692    3.83513233617865
H        10.96760194854575    5.71006712254630    3.09700058548470
C         6.25187249539535    8.71502103804619    7.56639083338633
H         6.11118580140806    8.95930115074863    6.50982298735594
H         5.51411229417676    9.28886284675460    8.15041435718577
H         6.01932050233221    7.64743663932421    7.72425489672088
C         7.74492612797617    8.81845138470215    9.39174968437572
H         8.72380430184990    9.16515696822262    9.72996358892540
H         7.64756596447773    7.74758561422109    9.64365658434642
H         6.97267172407869    9.35753786010245    9.96501091968432
C        10.68364755313142   12.12496460926629    7.47222533555746
H        10.07997205727449   12.48409215485366    6.63649922790807
H        11.74217718800782   12.14716311241266    7.17146617495210
H        10.56435950217967   12.81136984451647    8.32493872242227
C        11.08954378175187   10.28401974168846    8.90687131504984
H        10.88634099819925    9.22179489434036    9.07548595573592
H        10.89575120521681   10.83798898314213    9.83964869629675
H        12.16139559589167   10.38887431084953    8.67852452134165
C         7.28505718451397   11.99491270520518    7.05512848213804
H         7.65206950260873   11.75989923776552    8.05637955566924
H         6.19038971433130   11.86847698893491    7.04179377315840
H         7.49230003302375   13.05620389697697    6.84743550168456
C         7.39587354423321   11.52704118968810    4.76319951002675
H         6.31351532731189   11.32409316531191    4.69067367158077
H         7.90683570088462   10.99352247516260    3.96399592308102
H         7.53254966562304   12.60485010264917    4.58802695275579

