48
CSD_code = LAQSAX | q = 1 | S = 0 | Stoichiometry = C16H25N4NiS2(1+) | MND = 4
Ni        4.57657918221167   10.93509900729485    7.48218367237727
S         4.82808922198032   11.20003664489070    5.39803487886197
S         4.75285801987854   13.17812804093015    3.19505926719915
N         4.03942212960350   12.68724153134523    7.84756144127086
N         4.21252030663605   10.52905189147581    9.44459702022558
N         5.04757911616083    9.05491013964640    7.45501782641333
N         4.60371283077885    8.40297305691307    8.56223313629016
C         5.17441341007635   11.58158280009440    2.45257605199819
C         4.60748692340993   12.81867399231752    4.89690383408010
C         4.32869438510312   13.87012444111883    5.73741080155097
C         4.19534083355669   15.29356897908675    5.26479436311750
C         4.29649625940985   16.10609305092071    6.55614157516258
C         3.78028003173564   15.16134621019141    7.64517451540363
C         4.07534562222456   13.78008071735929    7.11501171659947
C         3.63801634169763   12.85102098908971    9.25130245160684
C         3.18872129793705   11.51001162657027    9.83910383294583
C         2.99495633784945   11.58334338304834   11.34953850675490
C         3.84916682151715    9.12227257383882    9.56033924829994
C         5.70946491257453    8.15527928500504    6.72369153019192
C         5.66868745135393    6.91611974001049    7.37199703283347
C         4.95582677258359    7.10172476163292    8.53788231118928
C         6.38695981433359    8.45526550112997    5.44048677148887
C         4.59604547838317    6.14614308733030    9.61093274340902
H         4.36667423649281   10.87585437277175    2.61790905433821
H         5.29494574067664   11.77398920571979    1.39109040611368
H         6.10294607762168   11.21387669036662    2.87767317098092
H         4.96732456776739   15.55455113888842    4.54173249239904
H         3.22636189142818   15.43363329722187    4.77937725691804
H         5.33941669135615   16.35449453779363    6.75366794979907
H         3.72808165344928   17.03195378074000    6.51323603874809
H         4.25296108066404   15.34937086185115    8.60868194609155
H         2.69840131488935   15.26906815122015    7.76691665399335
H         4.48326239345125   13.24157978862830    9.83470439249443
H         2.81155134046664   13.56401252766224    9.32448240285157
H         2.25016598797715   11.21238334450520    9.35400291124735
H         2.64384728032996   10.63287937541649   11.74338524031849
H         3.92728266882420   11.84578381019534   11.84611807199478
H         2.25599517716923   12.34059512157025   11.59445438140595
H         4.07019941307141    8.69376906351239   10.54769297987777
H         2.77190807440736    9.01925813014130    9.36111103531683
H         6.10722269863762    6.00365870535630    7.02643682087912
H         7.06911900577937    7.64836971484625    5.19016107218216
H         5.65430387682644    8.55509997115256    4.64123673963050
H         6.93854990496924    9.39021180143884    5.51004333242757
H         3.51679720433384    6.10889481138099    9.75385012918695
H         4.94540709611878    5.15361405700597    9.34378952478924
H         5.05718838436599    6.42824711674701   10.55756211723051
H         5.06052273792703   10.71115917262733    9.98770934951140

