50
CSD_code = LAQVIL | q = 1 | S = 0 | Stoichiometry = C26H18ClMoN2O2(1+) | MND = 9
Mo        7.66350150861628   12.48134939257093    4.61388005491495
N         6.27688372491718   11.39332634332599    3.41770390858792
N         8.10007817813082   13.00935018758550    2.59896232122321
C         6.40564871074246   11.48787316070972    2.07665510738539
C         5.96328764639580   13.08681418278943    5.33327432829039
C         7.64910964252892   14.42268896178799    4.71907545433731
C         4.65810871194184    9.89248496560983    1.67927625892768
H         4.02573527024991    9.31718475800792    1.02173272425207
C         5.62102980889261   10.76158113926562    1.15253920889259
C         7.64487947760198   12.54414401217986    0.24368990044998
C         8.55591292815879   10.35130758987701    5.04679273243502
C         8.20752717132105    8.98633626150348    4.52426479958438
H         8.07354982334487    9.00001164114008    3.43788480189087
H         7.28096693799775    8.63057176703789    4.98371916121197
C         5.35642751584392   10.55506315998945    3.88196531603742
H         5.25025447724727   10.49672178869357    4.95749933313235
C         4.53869418394312    9.79539244271678    3.05291442411773
H         3.80747582812848    9.13854994853139    3.49555868256685
C         7.40833526273663   12.37440157681487    1.62647984329805
C         5.86586601979301   10.96217757491828   -0.23925065526389
H         5.25962032356324   10.41357336831685   -0.94332181975100
C         9.34320784546098    8.04661532434345    4.87311585827654
C         9.08101611560328   13.81848113758795    2.21146949150245
H         9.63723724465495   14.31928851823848    2.99315553854748
C        10.15264059336659    7.50944416980286    3.88286881575820
H         9.95986471031585    7.73742698192225    2.84400454925695
C         9.58200970261078   11.18007222221984    4.53181302123081
H        10.22324580740104   10.92208739671443    3.69680108027757
C         6.83070836131194   11.81182542644586   -0.67216008556345
H         7.00710044135661   11.95142535340632   -1.72747043343743
O         7.60098636693981   15.56150455533659    4.79957658171529
C         8.67189928520129   13.42132514478831   -0.12448633045661
H         8.89118858682820   13.59804434994769   -1.16558028053926
C         9.39247645540759   14.04646749983143    0.87579131969605
H        10.19605596651721   14.72310371044042    0.63371727658811
C         8.86581674894432   12.10787252489298    6.50349917430826
H         8.90564502789189   12.64556189261921    7.44415705542859
C         9.78832937314884   12.25381147875514    5.42719783120771
H        10.62531781376233   12.93994024715517    5.40888581667006
Cl       12.75930063916164    5.32292269841406    5.94828306047827
O         4.97340849345914   13.47180382237138    5.75665460304397
C         8.10634568509781   10.92699608587391    6.25917900460233
H         7.44483503953155   10.45419631232610    6.97414036623377
C        11.45126989201272    6.36742680542341    5.53671185416649
C        11.20227354741394    6.66880733714786    4.20643339803574
H        11.82396065620261    6.24816505790125    3.43274913994354
C         9.60722432762629    7.73846295759169    6.20215424616005
H         8.98749081235583    8.15231571440694    6.98386040551017
C        10.65392811530266    6.90224162886742    6.53873241767902
H        10.85292319301741    6.66265942186106    7.57074933715887

