50
CSD_code = LAQVEH | q = 1 | S = 0 | Stoichiometry = C26H18BrMoN2O2(1+) | MND = 9
Mo        0.71076535686339    7.55041728515107   12.64403425870692
C         1.42660844377537    9.86268044676232   10.71849927194435
H         0.35021669020540    9.94329698910427   10.63833638487135
C         3.23719039905491    8.86361308684050   11.69532579687214
N         1.89555924414033    8.95922839817188   11.57264560663143
C         3.62495465149044   10.60793775099248   10.09399781529481
H         4.27854926989269   11.25152742591069    9.52673065340004
N         2.72499506340261    7.16616727970370   13.21653506553456
C         4.15683736806624    9.66499920666425   10.98176355355172
C         2.25115288610070   10.69377686594648    9.96850167816140
H         1.80466321596816   11.40969304486029    9.29753607992618
C         5.98813484484876    8.50972110628217   12.08073784943576
H         7.04427665275418    8.36107980676167   12.24397942368456
C         5.54961873430774    9.45583178828852   11.21300925893864
H         6.25013100781222   10.07459433164905   10.67391684429460
O         0.47125168705465    7.64392082006906   15.71983534122217
C        -0.04378694445715    5.40392098578371   12.41459490126819
H        -0.01633129525983    4.57201530959907   13.10658899891074
C         0.57135020390340    7.58400463593081   14.58319117632381
C         0.59073156811288    5.85716743325178    8.20142501212983
C         0.33926056426116    6.63421721566555   10.51115323983948
C         0.88100136825304    6.99580260307523    9.15678242540231
H         1.96221977367961    7.16297335190287    9.19505644042198
H         0.40273441792332    7.90922393445648    8.79142240438618
O        -0.51806210377054   10.21891096638845   13.58913102439461
C         4.45701266009702    5.92796184490615   14.30357546596299
H         4.70458981190281    5.13780589537992   14.99365415813798
C        -0.72317231609762    5.53200176179484    7.88523152737997
H        -1.53672616299679    6.10047460855401    8.31088440615831
C        -0.05997130733307    9.23813053428278   13.22158158104068
C         1.35584400554232    4.06673778610879    6.78380127303334
H         2.16150283627244    3.49532367418259    6.35048671802989
C         1.62319463934578    5.11299365361014    7.64831620771564
H         2.65057297993690    5.35374163278837    7.88206315318926
C         3.11918100630222    6.20191656270674   14.04211726365473
H         2.34106355221397    5.62994969582443   14.53033873179650
C         5.45213527227340    6.66953289708760   13.69523734967646
H         6.49421348687738    6.47922197958782   13.89786406101629
C         0.86545982433260    5.62668893958638   11.35547596391344
H         1.72177476903052    5.00584721380197   11.11749299279466
C        -0.89421128183057    7.05623114325682   11.06211680069406
H        -1.61678058737816    7.69770550202368   10.57284233013563
C         0.04045538617341    3.75943962058364    6.47749062698310
C        -1.14037055288590    6.29754977711843   12.24341474434198
H        -2.08902381140470    6.23743297378527   12.76510035957232
C        -1.00433524387911    4.48785574281960    7.02534586302526
H        -2.02466891794670    4.24044445686368    6.77883218540053
Br       -0.33628845026917    2.31950741566478    5.29131095123079
C         5.07752069339103    7.67929469613365   12.80088563790893
C         3.69320463994816    7.87868792233444   12.59860914166187

