44
CSD_code = LARHOD | q = 0 | S = 0 | Stoichiometry = C17H23Cl2NRu | MND = 9
Ru        2.42238216444419    5.14275760291168    0.98824361492847
Cl        2.45196873497143    2.90649362940271    1.70071854202173
Cl        3.44800746176516    4.41377512439173   -0.99245048681798
N         4.28337896698074    5.27434160295779    1.71844724938052
C         2.02281645880154    7.55975668533886   -1.40507166689442
H         1.17758147508013    7.85898455394973   -2.02368173890331
H         2.60710694598224    6.82478480480063   -1.96416001665316
H         2.64650317830140    8.42916040693530   -1.20823594761462
C         1.54678501921941    6.93315330690554   -0.13220357683586
C         0.61045029093764    5.85664548590076   -0.18084939908366
H         0.23104176043875    5.53396922172378   -1.14509441783638
C         0.13880960143345    5.26464035023599    0.99269268519466
H        -0.61217138974384    4.48278999649393    0.93759393889055
C         0.56206093153603    5.72580482898071    2.27603596539143
C         1.49772477246027    6.76826849840918    2.32171133905981
H         1.80103655500824    7.18376174806493    3.27601905084271
C         1.98985508525253    7.36588806679285    1.12555315441818
H         2.65719394304836    8.21911089685471    1.19671859194194
C        -0.06789757510732    5.16566865739222    3.52913560817308
H        -0.72965525665797    4.34371155803246    3.23588908172590
C        -0.91447352006811    6.24713797184901    4.20928874799677
H        -1.43347581103935    5.82528951832940    5.06636986900057
H        -1.65578025372666    6.64630820855180    3.51941943216143
H        -0.29029778110055    7.06763253025327    4.55684195443247
C         0.98185240564093    4.59712110279551    4.48423162621668
H         0.49486753962398    4.15564390078065    5.35024908653617
H         1.66150742854719    5.37317671995539    4.83059531118365
H         1.54944313571246    3.82207977721570    3.97170055365770
C         4.63466114288033    4.75320553752373    2.89608685287447
H         3.86234406867161    4.23374740535187    3.44810690326343
C         5.92516365241416    4.83320797307173    3.38103692221085
H         6.15678887590966    4.38498342453342    4.33478115169964
C         6.91686969722458    5.46747605845111    2.64323715417445
C         6.54313486501501    6.02527921888283    1.41384691271437
C         5.22403558900499    5.90561556419605    1.00921154797008
H         4.91260807732236    6.30702409574477    0.05153911974819
C         8.32339187571674    5.54664157726159    3.13563234348302
H         8.41986255662923    5.07073788180754    4.10749074716963
H         8.64188422818491    6.58533821041191    3.21823755069567
H         8.99544385776690    5.05161955672332    2.43566198723527
C         7.53536022914690    6.72547805528653    0.54276338135420
H         8.35001953200583    6.05078386380669    0.28495387863820
H         7.96506352664409    7.58188816829193    1.06141110967828
H         7.06634595773021    7.06691665244859   -0.37520571544352

