115
CSD_code = LARJIZ | q = 0 | S = 0 | Stoichiometry = C42H66As2I2O2Pt | MND = 4
Pt        1.77930433114221    3.19974718132804   11.57897980279531
I         4.12510622610752    3.61744586917656   10.50598798615390
As        2.91399226883345    3.00206479513799   13.71980010164139
O         2.72790641185386    0.30451755897439   13.14818462393849
C         4.43208593876268    1.81778280401233   13.53873647943471
C         4.07895114582402    0.50687519567699   13.19332104433563
C         5.06015964053225   -0.42975942314867   12.90715959851548
H         4.80704690847164   -1.43670935179989   12.61208163621178
C         6.39408743380740   -0.05766480508245   12.97478024543331
H         7.15589424723980   -0.78878604117786   12.74862195580132
C         6.75167050160562    1.23319779666386   13.31201119224989
H         7.79246560757890    1.51619046047945   13.35226918675751
C         5.76797504054600    2.17328151536785   13.57707052874476
H         6.05137092139595    3.19374163854121   13.79957511461773
C         2.21489213560636   -1.02460657533717   13.13478523585190
H         2.64252466349773   -1.56316075941347   12.27548002763828
C         2.54614438313290   -1.75775710302391   14.43478442608739
H         3.61905747338018   -1.80378045998825   14.60667102791953
H         2.15579625968786   -2.77082413048510   14.39145910592537
H         2.08542218791925   -1.24057784366544   15.27359179095335
C         0.70646392822698   -0.91567052017111   12.95911678199147
H         0.25874564676902   -0.43306985699445   13.82435535397461
H         0.27372841725779   -1.90465916978699   12.84038424192434
H         0.47248671263243   -0.31982217877601   12.08362993218234
C         2.01462885899519    2.32376017807372   15.36157261544366
H         1.35109827904924    1.52794834720400   14.99969984779483
C         1.14345692269174    3.36623850284788   16.05319865001736
H         1.76100935665515    4.17504476946531   16.45297303578241
H         0.42889966844630    3.79225718997957   15.34278902549231
C         0.38410265674885    2.72356612108822   17.21153991411039
H        -0.23852925738208    3.47253469272309   17.70527062521460
H        -0.27633883908691    1.94636443609347   16.82126115851243
C         1.36297177292362    2.11610899454481   18.21214697225809
H         1.98469223174206    2.90722519057109   18.63986842410398
H         0.81644715792342    1.64352579705009   19.03090747910479
C         2.25582075513508    1.08817895537023   17.52361743946710
H         1.63433686448468    0.26679631082321   17.15749098632692
H         2.97159165610730    0.67341065818462   18.23770635998565
C         3.00336928039284    1.72015258169019   16.35045151783538
H         3.67607076509354    2.49501794866323   16.73099502731762
H         3.61962863365084    0.96033144030628   15.85747498902034
C         3.72696427081453    4.76721958253745   14.10567687211717
H         4.49673157006860    4.89832463255653   13.32978507763716
C         4.39341825232177    4.95654924834814   15.46180424886462
H         3.65683841700561    4.86971684588044   16.26457938236087
H         5.16128193383163    4.19281504159219   15.62445441851845
C         5.02073317767314    6.34862062188721   15.53645282748790
H         5.49788602860919    6.48842055094040   16.50946884976627
H         5.79238871989726    6.44253519262615   14.76815992125548
C         3.95707979220304    7.42234467870044   15.31949135279831
H         4.41481150121523    8.41266625033783   15.36665821179651
H         3.21160520367525    7.36111453586016   16.11672041352517
C         3.27261722263279    7.23113157799621   13.96813838426252
H         4.01397854838336    7.35288418502006   13.17439989409220
H         2.50102669639450    7.99204369393739   13.82907182281375
C         2.65843396962521    5.83765780847979   13.88517184107830
H         2.18486585425873    5.68168665725298   12.89983422150919
H         1.87169596925699    5.74255373098632   14.64074317348033
I        -0.56599861213409    2.78122051148176   12.65188800071190
As        0.64356682510532    3.39631994101276    9.43838496793218
O         0.83000433623071    6.09400095500508   10.01004877244706
C        -0.87426966555730    4.58080483475212    9.61951247495744
C        -0.52105736531552    5.89168240059709    9.96493372134563
C        -1.50223091105966    6.82833519125018   10.25111132645392
H        -1.24908235993844    7.83527714601756   10.54617869849264
C        -2.83616535868122    6.45625514391590   10.18353278328540
H        -3.59795185435827    7.18737955117906   10.40972580470154
C        -3.19378762219690    5.16539433743416    9.84634928319525
H        -4.23457862952522    4.88240444916238    9.80611609500732
C        -2.21013393419367    4.22530280945645    9.58125004148400
H        -2.49353044245849    3.20483910854414    9.35876100535421
C         1.34305610856210    7.42311475272949   10.02339349634362
H         0.91543301740953    7.96171673476887   10.88267176969010
C         1.01181531710868    8.15621770929292    8.72336494568875
H        -0.06109510151771    8.20222294764914    8.55147310591572
H         1.40215076243832    9.16929006520857    8.76664950718906
H         1.47254569475982    7.63901395685091    7.88457949537550
C         2.85148829321904    7.31420569347325   10.19906288112898
H         3.29920623181564    6.83152547472255    9.33386955647207
H         3.28422850431147    8.30320406870640   10.31769455220715
H         3.08547792214919    6.71845109961646   11.07460808701503
C         1.54324485820008    4.07477099241901    7.79675424447662
H         2.20679650003510    4.87065142133013    8.15845767234227
C         2.41436805020363    3.03230423261797    7.10502911037485
H         1.79681978652757    2.22345928990176    6.70532820094574
H         3.12900509768635    2.60632815301888    7.81537659059860
C         3.17361585290896    3.67494042128718    5.94659415963718
H         3.79624138292300    2.92597489561337    5.45285304089824
H         3.83405618513095    4.45219390847349    6.33676828190475
C         2.19466162500997    4.28229734385193    4.94601850802017
H         1.57293835188686    3.49113457050631    4.51839306736581
H         2.74109946491757    4.75485716278664    4.12718553640600
C         1.30184060322562    5.31021074463720    5.63459939046485
H         1.92332567103536    6.13164664896037    6.00059986406659
H         0.58599403430605    5.72490645693089    4.92054493539360
C         0.55442070779728    4.67827348703732    6.80787743323822
H        -0.11830728581113    3.90339551726021    6.42740911697473
H        -0.06181627062493    5.43812209298535    7.30083027960065
C        -0.16911722590429    1.63110531040403    9.05259724997442
H        -0.93883962199536    1.50004254502539    9.82853150078919
C        -0.83553573674532    1.44190697668998    7.69644955266071
H        -0.09898203944748    1.52878307740237    6.89365360671030
H        -1.60343598432704    2.20561510285419    7.53385899687344
C        -1.46277789068143    0.04980803016872    7.62186741045708
H        -1.93996536340278   -0.08999032621382    6.64887372985784
H        -2.23439833066096   -0.04413098722037    8.39019186828480
C        -0.39908324865527   -1.02388584089287    7.83877698060897
H        -0.85677584964469   -2.01422497177564    7.79160986612905
H         0.34636402488728   -0.96260787381607    7.04152778042177
C         0.28542085169419   -0.83265800599321    9.19010552443023
H        -0.45590736367603   -0.95443241698210    9.98387010500883
H         1.05705189357717   -1.59352798643346    9.32915017373126
C         0.89956868697654    0.56081727711337    9.27306823266582
H         1.37314400875798    0.71681543844340   10.25840006682652
H         1.68628109448888    0.65597488264302    8.51747514723396

