103
CSD_code = LARJUL | q = 0 | S = 0 | Stoichiometry = C38H58As2Cl2O2Pt | MND = 4
Pt        0.00140421840174   -0.00114295031958   -0.00339240478586
As       -1.44452252024412   -1.67518913930176    0.87987810842792
Cl       -1.53746284188418    0.38008612969078   -1.69910056044918
O        -4.15210984193271   -3.08204715561986    1.03082611593562
C        -2.37409082158665   -2.75367585674143   -0.43431039930968
C        -3.61527932970457   -3.34769871483763   -0.19709808860810
C        -4.20204900087437   -4.14498418174539   -1.16974697085039
H        -5.16384689470890   -4.60617025579194   -1.00492623752369
C        -3.54479397999721   -4.35749874759403   -2.37193950835935
H        -4.01048432810161   -4.97944041325276   -3.12218671802690
C        -2.31074878491320   -3.78381070954132   -2.61337869672019
H        -1.80524018856512   -3.95347165645294   -3.55193858751430
C        -1.73403912732256   -2.98316140932717   -1.64148596571225
H        -0.77233999529609   -2.50683139230978   -1.81301960126332
C        -5.42514276015968   -3.59388698359898    1.33628140413649
H        -6.18223635147215   -3.23055107401624    0.63392291897648
H        -5.66102536113297   -3.23183802714334    2.33596648086679
H        -5.42681541846727   -4.68899925599379    1.34078751999005
C        -2.70968081751092   -0.73439098476158    2.06754342554036
H        -3.26610885873221   -1.44046578116158    2.69234950280128
C        -3.67224162612979    0.09737038751866    1.22696887497631
H        -4.29269955849520   -0.55958763362147    0.61028281083930
H        -3.08928000907015    0.73445612220696    0.55103170533898
C        -4.55194486122115    0.97391873140650    2.11311442976164
H        -5.22566413998097    1.56893276467773    1.49263069359469
H        -5.16393552515773    0.34024834683044    2.76109421148134
C        -3.68843633128829    1.89237648395415    2.97297166599840
H        -3.11283484052512    2.55558988638838    2.32300354232305
H        -4.32095549219038    2.51290386110528    3.61192941155059
C        -2.72997985670898    1.06821390258528    3.82773541803938
H        -3.30442352923100    0.44008723706758    4.51413397080079
H        -2.09950307031322    1.72874661501523    4.42733669001121
C        -1.85990525869240    0.18495433803779    2.94089171059045
H        -1.25378443149529    0.82222939261216    2.27609425182248
H        -1.16898223668384   -0.40667719386567    3.55282525127210
C        -0.57537466955642   -3.07054709598352    1.98255973313123
H        -0.04639058264468   -2.54339203143808    2.78557405615484
C        -1.54447109804396   -4.07846079331852    2.57989388767652
H        -2.08743354969468   -4.57988851165621    1.77166249552363
H        -2.27633700013519   -3.57189121628707    3.21702025577056
C        -0.78408296144056   -5.12493689046714    3.39206503114232
H        -0.27183925652732   -4.63444975960624    4.22320657667922
H        -1.48416236073377   -5.85225505908315    3.81086574439717
C         0.24346800436851   -5.83540977439080    2.51554307914218
H        -0.27318569257233   -6.36610448766522    1.71142491958596
H         0.78973815712724   -6.57356150677465    3.10688597990378
C         1.21581983841341   -4.82646633533057    1.91091135709106
H         1.93565165656178   -5.34036751236792    1.26990999455887
H         1.77104102033206   -4.33093231782700    2.71021249013588
C         0.45498538611971   -3.77764642682946    1.10639813613468
H         1.15254397172987   -3.03176417041099    0.70551254057771
H        -0.05597857056334   -4.26238990198971    0.26435022051635
As        1.44492215896931    1.67592797930765   -0.88012982040028
Cl        1.53589318188799   -0.38081577899336    1.69932590394202
O         4.15211537221670    3.08216365469346   -1.03047772963029
C         2.37406433912202    2.75401078767416    0.43454895509303
C         3.61522296564465    3.34800818042910    0.19736998973567
C         4.20184787905657    4.14542937479419    1.16996741139327
H         5.16365700395646    4.60659888282554    1.00519614763978
C         3.54442637826512    4.35807073070361    2.37205171327473
H         4.00999994593649    4.98011785562082    3.12227361732658
C         2.31035659718568    3.78441440187137    2.61342464851847
H         1.80468837346493    3.95422964455774    3.55186683183118
C         1.73379711813666    2.98363689043075    1.64157443686715
H         0.77200010246539    2.50743822933500    1.81297743335746
C         5.42518023989141    3.59386828639451   -1.33594724660319
H         6.18219143260426    3.23059281248557   -0.63346925227690
H         5.66110415180232    3.23163822175252   -2.33555731664536
H         5.42690587788928    4.68898010418455   -1.34062212875084
C         2.70964301700838    0.73412234340385   -2.06716900451146
H         3.26597925132122    1.44023985927511   -2.69198948340105
C         3.67229094300685   -0.09740631095562   -1.22648138075643
H         4.29270655449558    0.55965767149583   -0.60985673674670
H         3.08936617931510   -0.73448995960985   -0.55051761274881
C         4.55200657819734   -0.97399514558843   -2.11255885767582
H         5.22572607038487   -1.56892289905026   -1.49199668986429
H         5.16400096192245   -0.34036404450333   -2.76057486968825
C         3.68855517720468   -1.89255703585635   -2.97236834297853
H         3.11297228050953   -2.55573941615378   -2.32235301171214
H         4.32110481561519   -2.51311876007531   -3.61126635669942
C         2.73004728455887   -1.06850329523773   -3.82718482780958
H         3.30448435160203   -0.44041202348090   -4.51362971045448
H         2.09962786229655   -1.72911753904254   -4.42675681183306
C         1.85984098999703   -0.18529736675233   -2.94038662701391
H         1.25374198587394   -0.82257103014257   -2.27559700944556
H         1.16893178550969    0.40627388399742   -3.55239682973191
C         0.57524319349133    3.07062327963513   -1.98292541938366
H         0.04632378620008    2.54332631325158   -2.78588795353325
C         1.54460369491091    4.07828570010626   -2.58017890246030
H         2.08754424475983    4.57982177738533   -1.77199038440872
H         2.27648541142258    3.57158609400726   -3.21717946190906
C         0.78430828420933    5.12465833315480   -3.39256193437967
H         0.27210711047080    4.63406995131677   -4.22367365780831
H         1.48446320237636    5.85186980604239   -3.81141938905126
C        -0.24327730221292    5.83535001393941   -2.51624976261879
H         0.27335394247997    6.36614452377038   -1.71217748984520
H        -0.78946402259585    6.57343898928404   -3.10775375869467
C        -1.21574030289646    4.82656797893144   -1.91152517036706
H        -1.93558148291815    5.34059866269453   -1.27063990915566
H        -1.77092636157859    4.33091281372277   -2.71078189621753
C        -0.45502327319864    3.77784864983292   -1.10679138802164
H        -1.15258134428498    3.03199698703499   -0.70584795356698
H         0.05595349049375    4.26266004597103   -0.26477787420888

