103
CSD_code = LARKAS | q = 0 | S = 0 | Stoichiometry = C38H58As2Cl2O2Pd | MND = 4
Pd        0.00054865337499    0.00003354825205   -0.00022785268788
As        0.70753314446755    1.29589932022690    1.81973374145099
Cl        1.16668736875894    1.34272925068458   -1.43872788360800
O        -1.29664880784884    2.56131280683732    0.26181483861544
C         0.69317253491479    3.16973477511777    1.31815945354241
C        -0.38380065984192    3.54935373800259    0.50407150437678
C        -0.47625844920513    4.84826179869717    0.02581284979832
H        -1.28923732107736    5.15258286485412   -0.61505102517410
C         0.50352545091863    5.77036862775544    0.35937358000323
H         0.42843060774520    6.77930865853262   -0.01847967189798
C         1.56816947033616    5.40859374689950    1.16174069694149
H         2.32718839521265    6.13275928050321    1.41769437460153
C         1.66290697508074    4.10702501482978    1.62996742121745
H         2.50159592312874    3.82063166956432    2.25258174263710
C        -2.51979414662463    2.93383127835602   -0.32793974902697
H        -2.98830221287809    3.75539426708178    0.22575902090211
H        -3.15658421745306    2.05174509889748   -0.26767983638098
H        -2.38947279816135    3.22627817363426   -1.37551135586655
C         2.56731830995943    1.01060732875783    2.44005417513782
H         2.88774341487088    1.82565172031334    3.10314931696168
C         2.65107961566736   -0.31733252285569    3.18805875074983
H         2.02375778718043   -0.28344386371659    4.08610009006541
H         2.25663437782012   -1.10662405468073    2.53560994469978
C         4.09326479803230   -0.62464012493048    3.58560975841260
H         4.14197752144674   -1.58769849575060    4.09908963951331
H         4.43851455136368    0.14242934865512    4.28400676315657
C         5.01195956130747   -0.64064548530046    2.36656747443996
H         6.04402697857843   -0.80263509811876    2.68604515142396
H         4.73486368484539   -1.47172167131983    1.71510348953768
C         4.91042176154768    0.67144882538763    1.59243471628298
H         5.28661942200086    1.48667215846693    2.21624554685184
H         5.53292002215855    0.62319008911028    0.69644588999115
C         3.46437909313261    0.96595165167754    1.20669508811611
H         3.08379271449854    0.18527245487238    0.52983814046997
H         3.40265036057056    1.91749706669989    0.66538095802632
C        -0.34550311666177    1.32438447906895    3.50916903089615
H        -0.34280568012782    0.29346702445197    3.88616957942413
C        -1.78674954035606    1.71805273218623    3.20350355724179
H        -2.19461377299320    1.02964495092732    2.45460909550175
H        -1.80238551295727    2.73557729299732    2.79609291674589
C        -2.63173176302673    1.68011124798865    4.47244267889909
H        -3.66077611647383    1.96723162428717    4.24460113529764
H        -2.64708910589994    0.66162666748037    4.86593448331035
C        -2.04720743146303    2.62452392757361    5.51868314381862
H        -2.64243162887851    2.58645986734106    6.43359257676839
H        -2.07939081107113    3.64947312076025    5.14023183847021
C        -0.60137421587448    2.24672506851014    5.82563664851137
H        -0.18177286832162    2.93915041865627    6.55936882478908
H        -0.57584283647135    1.24340815236554    6.25744711121613
C         0.24442210890767    2.26551281435374    4.55310988444139
H         1.27175508138593    1.97430807478395    4.79615214184586
H         0.26887858485073    3.28331088264767    4.14506721266870
As       -0.70770161694620   -1.29607590096198   -1.81967506469432
Cl       -1.16637087339298   -1.34200722610755    1.43845681532927
O         1.29662860698812   -2.56127278393464   -0.26179189318518
C        -0.69318165435879   -3.16983906545925   -1.31811145524338
C         0.38382005111602   -3.54936801630767   -0.50402975459518
C         0.47632015299028   -4.84825870870387   -0.02574757997754
H         1.28930579733167   -5.15253644497774    0.61512451361799
C        -0.50345340571418   -5.77039229809631   -0.35927479571086
H        -0.42833205248836   -6.77931752387896    0.01860310597689
C        -1.56812384858719   -5.40867249252992   -1.16163664078075
H        -2.32714520586948   -6.13284945811790   -1.41754684755941
C        -1.66290090011063   -4.10712831056439   -1.62989415055305
H        -2.50160253155884   -3.82074282460132   -2.25249621717015
C         2.51984955704538   -2.93376683728388    0.32783208152943
H         2.98829646551646   -3.75534348900988   -0.22590252255920
H         3.15664513361116   -2.05169062254917    0.26748241864546
H         2.38964973268823   -3.22619556672755    1.37542432357354
C        -2.56739967273123   -1.01062960570814   -2.44008025408402
H        -2.88785342253354   -1.82568256609376   -3.10314491115318
C        -2.65112320024811    0.31730773449738   -3.18809414596130
H        -2.02380469924022    0.28339156311402   -4.08613701494726
H        -2.25666843328391    1.10661054245816   -2.53566633167006
C        -4.09330192197032    0.62461852675651   -3.58564831666366
H        -4.14201964359786    1.58765722831097   -4.09916618885472
H        -4.43855371591161   -0.14248394965065   -4.28400750456896
C        -5.01195960787641    0.64065013207980   -2.36658019748458
H        -6.04402958371660    0.80263136765651   -2.68604779164992
H        -4.73485742850576    1.47175043326548   -1.71514940493400
C        -4.91041589254975   -0.67141537954591   -1.59239531060070
H        -5.28662466825300   -1.48665658507664   -2.21617584578106
H        -5.53290396666989   -0.62313183697478   -0.69640144336086
C        -3.46436875351551   -0.96591612442942   -1.20666700909479
H        -3.08373362181694   -0.18522761319735   -0.52983707284541
H        -3.40263783716157   -1.91744929393260   -0.66533628920818
C         0.34545154959899   -1.32435437667390   -3.50909638939830
H         0.34276101267651   -0.29345427636054   -3.88615746242239
C         1.78671772595721   -1.71805067546854   -3.20352696116404
H         2.19462789037690   -1.02964288637359   -2.45466569841680
H         1.80237577918137   -2.73556934196323   -2.79610233153607
C         2.63166062635698   -1.68013313595189   -4.47249658535771
H         3.66071342679695   -1.96724691654701   -4.24468804104222
H         2.64700700862716   -0.66165787149331   -4.86601398187004
C         2.04713450221516   -2.62457238101239   -5.51870660356539
H         2.64232955177408   -2.58652088262817   -6.43363900856813
H         2.07933627514420   -3.64951011910597   -5.14022979487700
C         0.60128338900733   -2.24677323552484   -5.82557276088434
H         0.18166529496526   -2.93922545830155   -6.55926878769474
H         0.57573208588592   -1.24347714162048   -6.25742903507450
C        -0.24447691503628   -2.26551884464802   -4.55301331390217
H        -1.27181762672237   -1.97433516030560   -4.79604769571404
H        -0.26891417588322   -3.28331589211876   -4.14496545542119

