106
CSD_code = LARPUR | q = 1 | S = 0 | Stoichiometry = C58H40CuN4OP2(1+) | MND = 4
C         1.67349946741508   -0.49316674725959    3.81754706840774
C         0.77602167632855   -0.83280010016935    4.82147769274028
H         0.45127825768663   -0.08907171023156    5.53595277758923
C         0.29245496646197   -2.12805851018458    4.89772112806584
H        -0.40903185424025   -2.39235477354680    5.67511215625893
C         0.69744522831240   -3.08164371504456    3.97861990825103
H         0.31357440451107   -4.08843055665138    4.04222597689553
C         1.59247954489612   -2.74412676467951    2.97449346459042
H         1.90645939507551   -3.48754082954867    2.25676801184455
C         2.08261300918752   -1.45477473100260    2.89648445433836
H         2.78446103386254   -1.17174127056137    2.12091708864285
C         1.44826251544401    1.76732001215835    2.16186381376595
C         0.07880590460988    1.55588354344773    2.03050607896183
H        -0.45610422672922    1.00719636321937    2.79355745707231
C        -0.58563752446465    2.04452842932260    0.92099491511090
H        -1.64808084308056    1.88310489592282    0.81672775955450
C         0.10892151056904    2.73804887782817   -0.05868180448268
H        -0.41579044189835    3.11725762652078   -0.92230735403597
C         1.47411107429645    2.93944119475341    0.06402861772402
H         2.01375606868177    3.47132630308449   -0.70530772079315
C         2.14408928833620    2.45121098266881    1.17142502995160
H         3.21454897695385    2.58141024062463    1.28005285112038
C         1.69708358407954    2.11527982250676    4.97774958076809
C         0.75238189350161    3.12615190938159    4.90744778536542
H         0.29035066462235    3.36652269574222    3.96124756562342
C         0.40889455315980    3.82281912294953    6.05518956721379
H        -0.33453237268267    4.60291334313216    6.00556681353301
C         1.02226126459316    3.52904739832139    7.26074305605027
H         0.75807333127507    4.08193521371323    8.14877739386794
C         1.98667693987164    2.53609600922642    7.34508951938292
H         2.48378071205663    2.32912664125962    8.28095700764344
C         2.31824181423049    1.83289757476454    6.20195703802324
C         4.07224552512445    0.51983095542840    7.17076988901995
C         3.60911739312763   -0.13814466967137    8.29479797441428
H         2.55937341188541   -0.36981747384862    8.39575164241725
C         4.51983957302402   -0.49435957047247    9.27860015494722
H         4.17296816438488   -1.00417096301062   10.16393718214191
C         5.86606169323654   -0.20218879492446    9.13236416454528
H         6.56249917671383   -0.48262166906437    9.90772341608407
C         6.32977966517142    0.45002799922337    8.00092801237455
H         7.38012490547317    0.68009084621453    7.89532879882870
C         5.42895574657104    0.81983067675421    7.01363075028502
C         5.15899525819367    3.36199791848282    5.96200205863867
C         4.30273082881390    4.05751809250645    5.11631764291598
H         4.03750970300798    3.62017516019724    4.15938077728055
C         3.78360168822733    5.27953749281673    5.50291336990778
H         3.11173787591695    5.81224217898688    4.84692105875342
C         4.12092783303124    5.81164948679732    6.73624828799620
H         3.71201039521643    6.76202070125450    7.04338896317530
C         4.98268290303832    5.12592350927946    7.57863449138312
H         5.24705790452911    5.54480955771819    8.53799574273642
C         5.50074966635654    3.90197272110370    7.19849197962941
H         6.16801198576333    3.36148103447867    7.85614197673106
C         7.53994019435419    1.87499195760465    5.38155240836318
C         8.14606853680531    3.09042874153126    5.07769743863423
H         7.54796154057668    3.99094736206874    5.03533480351498
C         9.50678437690408    3.14380672359886    4.83619353835198
H         9.97416744989223    4.08974947617924    4.60749016623211
C        10.27067374766780    1.98887962863192    4.88445352354379
H        11.33222659812989    2.03509578880877    4.69397961210580
C         9.67073095310002    0.77241145788195    5.17126266858267
H        10.26358090342494   -0.13026388035553    5.20546234089240
C         8.30974643322523    0.71182686639556    5.40307597644554
H         7.83240555502347   -0.23878971362295    5.60858096828718
C         5.61933635494554   -1.72772919952611    3.50604731010631
H         4.62383434578611   -1.96599744825491    3.85667069141250
C         6.62998468825975   -2.68345803393762    3.49095083648141
H         6.42732455831796   -3.68848959782508    3.82446110941384
C         7.88659900922371   -2.31752504911373    3.05076948332161
H         8.71229243851236   -3.01112299606808    3.02648845708987
C         8.10305235506312   -1.00178182334592    2.63284100550042
C         9.40757860139480   -0.53097520552531    2.21876516272856
C        11.62991639911964   -0.90875182562770    1.87504564017796
C        12.72822747300100   -1.76580475207568    1.87445064406569
H        12.58203280387673   -2.79584470021544    2.16213602714412
C        13.98706675412054   -1.30524017420153    1.50500744207131
C        15.11930588304222   -2.16150636126172    1.49226759335298
H        14.98305757023358   -3.19347076657376    1.77955140272515
C        16.34354155467720   -1.69410051903242    1.12621502647709
H        17.19951319232241   -2.35151673543902    1.11821795146308
C        16.51309961946274   -0.34218151248950    0.75024126897733
H        17.49480978562511    0.00266117185549    0.46334899906082
C        15.45492229939752    0.51314148033037    0.74839819164168
H        15.57819294841197    1.54665479977521    0.46080887990077
C        14.15936324360142    0.06949471433176    1.12266959268302
C        13.06585790429270    0.92850408480072    1.12458030244470
H        13.17861417007029    1.96282889364455    0.83723739520810
C        11.80224511314771    0.47024750981202    1.49092910939182
C         9.57874256807051    0.84091654612062    1.83508990564158
C         8.44333173941633    1.73840045495259    1.85151426026483
C         8.56099300876020    3.08373616149012    1.49385940535711
H         9.52369331176063    3.45359886110430    1.17880777469132
C         7.44422057723962    3.89147425551361    1.55691569761135
H         7.49319665886908    4.93374247899895    1.28581792533070
C         6.23982738153461    3.33878941844112    1.97805517019673
H         5.34564979167962    3.94439193509471    2.03824667941487
C         7.18592173685269    1.26780359850137    2.25950523363483
C         7.01811815897522   -0.11163677525082    2.66428508312533
N         5.80839436015406   -0.48629696275623    3.10001615479341
N         6.11203141104009    2.06948264010689    2.31918856867663
N        10.41764853747815   -1.36912331348482    2.23593080162090
N        10.75270599802147    1.31316355713324    1.48618218711078
O         3.27739295534738    0.86587798838268    6.09741146230566
P         2.38962597502640    1.16362557296756    3.59431292257326
P         5.73533761999769    1.70954837968229    5.45076855214255
Cu        4.62498174116016    1.16067115794620    3.44263621462841

