95
CSD_code = LARQUS | q = 1 | S = 0 | Stoichiometry = C50H38CuN4P2(1+) | MND = 4
C         3.78686884592700   17.98183847482048    8.55956320865308
C         4.34469628269992   17.43343026807760    9.71161073174325
H         4.53013716277662   16.36942216900007    9.76489210801922
C         4.65547884917524   18.25597960530411   10.77763717890228
H         5.08596494854728   17.83483289456704   11.67358964623940
C         4.41808930052072   19.62049282232168   10.69819254719266
H         4.66356151859420   20.25750828118629   11.53417028228001
C         3.87334436786007   20.16865098785578    9.54862217644077
H         3.69666335507451   21.23221269569450    9.48740538606830
C         3.55984887161674   19.35087297440475    8.47727578636304
H         3.14424700108906   19.76062119332271    7.56441062141262
C         4.91687787030171   16.00993519661112    6.91829765992697
C         5.95401703602855   16.70328714927760    6.29696917207316
H         5.78294803028188   17.72614142192488    5.98196408608456
C         7.17772003497434   16.09386432081213    6.09932253049463
H         7.98187260057554   16.63439792127921    5.62232200703899
C         7.37031892551413   14.78534648807409    6.51650767790475
H         8.32458314291972   14.30553331116254    6.36160352827496
C         6.34116780316529   14.09447572198120    7.13444184662838
H         6.49526172135988   13.07764981221536    7.46313794551993
C         5.11312165984651   14.70079051056174    7.33924599387182
H         4.31405499879089   14.15703983476866    7.82282601768909
C         2.18137960683710   15.73569932516824    7.75942760857627
C         1.87915283453970   14.64234670128914    6.94812289661571
H         2.39435317376964   14.51886915790352    6.00408821047631
C         0.93410350353918   13.71867855952273    7.34846260390452
H         0.71474334230783   12.86724986460437    6.72192603554514
C         0.26477480858927   13.89063826809461    8.54998931855360
H        -0.47343246222200   13.16863752127761    8.86356674643634
C         0.54011890761461   14.99035068374581    9.34503515907175
H         0.01294357452180   15.12808047820084   10.27719916091899
C         1.49160673976691   15.91592338279099    8.95301984886400
H         1.70214709933210   16.77424319095064    9.57540782237563
C         0.41834777262438   17.86508412467616    2.72558942974386
C         1.07833974778068   18.18219619262717    1.53914980864181
H         1.99486522513622   17.66643588783550    1.28143222439207
C         0.55463636452059   19.13557026042074    0.68627997319203
H         1.06235441004865   19.36276700274723   -0.24002016114069
C        -0.61526404139521   19.79931646755432    1.02028161822170
H        -1.02000281252015   20.54845242493240    0.35702718371915
C        -1.26679714353078   19.49869580227817    2.20578040475228
H        -2.17986329583367   20.01331133968190    2.46472751813261
C        -0.75324067107783   18.53970479831711    3.05912604079451
H        -1.26330356033508   18.30343327181379    3.98326438580433
C         1.94762005283910   15.45919955539581    2.91409652277277
C         1.33384193349757   14.95873397798337    1.76862103132361
H         0.39540479338892   15.37738303487558    1.43067741689907
C         1.93719963781279   13.93496917000459    1.06097051217717
H         1.46034741592271   13.54359143840418    0.17483728272456
C         3.14883600381828   13.41030657353277    1.48442098162381
H         3.61182994121075   12.61036729914401    0.92724132371297
C         3.76927516188938   13.91507459755559    2.61592844679898
H         4.71675528864439   13.51243512196936    2.94212468502608
C         3.17154379819644   14.93956076991201    3.32646641573237
H         3.64966468067522   15.35360541400567    4.20821605019411
C        -0.54210826760738   16.63168136130914    5.99978947001412
H        -0.00625672745246   17.51434275218694    6.32978184216218
C        -0.14979925423641   16.00864419027436    4.81726013863260
C        -0.79140175086016   14.84928589584323    4.40098573429965
H        -0.47744789399527   14.34600488275750    3.49823353675774
C        -1.83112335876660   14.33559014368123    5.15610362117998
H        -2.33173205445289   13.43542401795689    4.83229034396390
C        -2.23149016098848   14.96846576488540    6.32131778519242
H        -3.04413332724269   14.56167372877676    6.90335029305052
C        -1.58470053835858   16.11819521326177    6.74579061415834
H        -1.88818549353309   16.60574932796690    7.66000021991503
C         4.82242142506121   18.11469646706355    3.05233907514588
H         5.28240971949022   17.26806550123695    3.54346927088323
C         5.27081689178789   18.54978512796166    1.80845233056045
H         6.08779007976187   18.04099495374525    1.32288976030338
C         4.65332548959434   19.63299209998306    1.21759217054099
H         4.95434211124399   20.01215853440809    0.25374455320194
C         3.59710972257040   20.25645206878173    1.88916551037657
C         2.86835353957955   21.36595053753804    1.32307381311709
C         2.52467416227370   22.81896378979717   -0.38342539068144
H         2.82440046282421   23.17468251816408   -1.35882942551211
C         1.44991540442899   23.38683996842773    0.31349663740084
H         0.87398592944228   24.20499458003430   -0.09481156060826
C         1.78806511705091   21.93841189335049    2.02462094815521
C         1.41027192100646   21.42828011506929    3.32014587856082
C         0.34231969046917   21.95841329667312    4.05058490485179
H        -0.21139045184294   22.78596677576745    3.63640441989192
C         0.03665394647636   21.40759101563961    5.27735669656125
H        -0.77418763711514   21.79163528633738    5.87490362418446
C         0.79824543092558   20.33965695208632    5.74289068281840
H         0.59334940268730   19.89041026992579    6.70595442235469
C         2.12195660543592   20.34898399588029    3.86958420597491
C         3.21767328920884   19.75210714979781    3.14494882603080
N         1.08886115312949   22.94964621788062    1.49842531020431
N         3.21902651531022   21.82182385241396    0.11565703241954
N         1.80349383577769   19.82348438516501    5.06249521760393
N         3.83146223282318   18.69660664121749    3.70059649573414
P         3.37189533793881   16.95090235032003    7.12211759537697
P         1.23952142407075   16.78543943823034    3.93302342023491
Cu        2.68818991631313   17.97067122367320    5.26103732960847

