100
CSD_code = LARQED | q = 0 | S = 0 | Stoichiometry = C46H51N2Y | MND = 12
N         5.09813757115488   -0.23853806729291   26.47160903455901
C         2.83411143390653   -0.69033717805173   28.06416061608742
C         2.26986811211805    0.56477021171279   28.37603366846088
H         2.51043360202165    1.16196939102436   29.25075057723007
C         1.15080983544227    0.79973817831369   27.52084523901273
H         0.38512037760736    1.54409338219474   27.69338617294630
C         0.99796355652302   -0.35522339385340   26.69816509102850
C         0.02184375740624   -0.72731834287618   25.76103374343506
H        -0.79627422867105   -0.05663634185267   25.53759485039354
C         0.10851876633070   -1.95709052203734   25.15873284230428
H        -0.63835205328194   -2.25781622608133   24.43830416622670
C         1.14051113579227   -2.85241982861220   25.47774088693373
H         1.16146727057418   -3.82005853934998   24.99601823947433
C         2.10082865171608   -2.53075216619975   26.40439851315502
H         2.86179306193030   -3.24969066891890   26.67918707040608
C         2.05462042638961   -1.27568854464789   27.02946859452003
C         4.16679203082411   -1.19994189836406   28.52330620622147
H         4.50805270148606   -0.65026428576185   29.40862457580206
H         4.12118644838561   -2.25849895887760   28.79995243298412
C         5.19195694468962   -1.05477856731900   27.44601509857928
H         6.05023900924665   -1.73326278522067   27.50051290957320
C         6.12231518560462   -0.33239792299993   25.47277123096836
C         6.07241146393332   -1.36798192944565   24.53119869643342
C         7.09471054558102   -1.45557604681521   23.59540807489689
H         7.07577769218264   -2.24873580324398   22.86521354209691
C         8.13703895022661   -0.55135281966474   23.58702387275996
H         8.92494991456411   -0.63979147449653   22.85422340741754
C         8.17207143729203    0.46635434996814   24.52021004199394
H         8.99222537922549    1.16542485357245   24.50862409028190
C         7.17038415863696    0.59544050665499   25.47100689979129
C         4.95156563202744   -2.38206086518773   24.51452125045644
H         4.10815902338974   -1.98340652593537   25.08845674988042
C         4.43896225408626   -2.66312299187640   23.10106673203445
H         4.27354353201244   -1.73365946810677   22.56657387745519
H         3.49360033017797   -3.19741341922960   23.16197116737317
H         5.13790532496505   -3.27552038280046   22.53626599095348
C         5.41457251730128   -3.69572068922657   25.15416560531184
H         6.28016260308379   -4.08871059892275   24.62446206951831
H         4.61624553384214   -4.43266542153650   25.10322955620076
H         5.68978527454467   -3.55967841894556   26.19786903461343
C         7.23815998945182    1.66815595395694   26.53402927046571
H         6.20414145880990    1.93217656713676   26.81225743568890
C         7.92272441819679    2.95220659923211   26.06903040624750
H         8.99326808451248    2.80904555926169   25.94402796238127
H         7.77340642645449    3.73225586844440   26.81121502318916
H         7.49589197119658    3.29367422086200   25.13059337874290
C         7.96186275607209    1.10632379417801   27.76331496365520
H         7.41339878664095    0.27195267682027   28.19647854137048
H         8.07370582039658    1.87627609175960   28.52240489208201
H         8.95291809924428    0.75514912393335   27.48198766244992
N         3.40965788304507    3.40839327329713   27.10107896884623
C         4.25341518812897    2.79002091226481   24.30605060456874
C         5.19834892185090    2.12312657177665   23.49287069714544
H         6.23186805919875    2.41219134948732   23.39797010097670
C         4.61482427007149    1.06416308407811   22.81872639464592
H         5.12853415006812    0.39566451626168   22.15123503007235
C         3.24135652232176    1.02865330434186   23.13246063238671
C         2.16686833947333    0.28087131318123   22.62964828885020
H         2.35181176336695   -0.54842963308446   21.96106726501998
C         0.87763079813985    0.65559718526851   22.92001385806823
H         0.05012954518433    0.09014248746790   22.51816005631737
C         0.61154914658040    1.81915878728234   23.65992023144787
H        -0.41108730451924    2.15620194901635   23.75876900429774
C         1.63083869781078    2.56685744590668   24.20389078878139
H         1.43290889359099    3.54572889772552   24.62762412367389
C         2.97532588339814    2.12478266320622   24.04750330754220
C         4.47233778321893    4.04078334312355   25.02639968345401
H         5.08895362793759    4.78192607034250   24.53292465109281
C         4.01330939128862    4.31872330657551   26.27517950796321
H         4.18806421151903    5.31184855910334   26.69120490765242
C         2.94583806330735    3.93148452716251   28.34132566377936
C         1.68961052038529    4.55845253572612   28.43238648303880
C         1.29527150279070    5.12682420014269   29.63425547978736
H         0.34344948858089    5.63016156740695   29.69863963264109
C         2.10181220210363    5.06435736546367   30.75355808146718
H         1.78490975828499    5.52012354471074   31.67984821416388
C         3.31357395793288    4.40761745603855   30.68015592641529
H         3.93821878488444    4.35214715124925   31.55867782708274
C         3.74675313137593    3.83640796629472   29.49203919069402
C         0.76822077088459    4.60186607790061   27.23645525237394
H         1.05342697174547    3.76472190651142   26.58840327586336
C        -0.70299097352310    4.41582140048692   27.61495518691993
H        -0.82328738338518    3.59338005990464   28.31711324823942
H        -1.28549312431523    4.19578839194314   26.72240388037914
H        -1.11347779061158    5.31619373094172   28.06560855910487
C         0.94648951691177    5.90961734010368   26.46003666339525
H         0.75119907941401    6.76203988435159   27.10799548149130
H         0.25370745308659    5.94714813267135   25.62131479174264
H         1.95954000292851    5.99307894776762   26.07421177424017
C         5.09925972550381    3.16284633925120   29.44115989156900
H         5.13768474010579    2.55499610719715   28.52361450280421
C         5.33745148581422    2.23004153605717   30.63077718539981
H         5.49488019682189    2.79218880480316   31.54754165166387
H         6.22400307198477    1.62279927755530   30.45637317973302
H         4.48584833769221    1.56858920711983   30.77875392313668
C         6.19064110078081    4.23407960362389   29.37101731727921
H         6.08099367167231    4.82435895740428   28.46425858553354
H         7.18003156538365    3.78140546361525   29.37768522492940
H         6.11475144724006    4.90266011084763   30.22608270424804
Y         3.29884397730916    1.45850078385299   26.29531116203215

