81
CSD_code = LARRON | q = 1 | S = 0 | Stoichiometry = C40H34AuN6(1+) | MND = 2
Au        9.17864610433143    3.71636540927464   10.31071490683573
N         6.50222090300372    3.03229377201582   11.54467542849702
C         9.63959299466475    0.62780333467112    8.31900426744854
H        10.31775334832894    0.39693327278787    9.12989519820818
N         6.44716746088854    2.86860731248411    9.38738772901342
C         7.19635043426271    3.29035513595908   10.42090963040683
C         9.62596800742423    0.68535540023325   13.18864005312737
H         9.93674645831302   -0.21628558697034   12.68315400832298
C         8.80720044503972    2.98383902820878   14.48513212720175
H         8.48256072621533    3.88052932989772   14.99349471797607
C         4.26859302517779    1.93378055567528   12.02515046111336
H         4.28704755788868    2.00368432091033   13.10114213129441
C         6.95922628776207    3.38306500566279   12.86239703324682
H         6.12248471401501    3.26747176600200   13.55760691964110
H         7.25231290698704    4.43933007130605   12.85900018261244
C         3.16988938345779    1.23998589215213    9.97954241796799
H         2.31855141013343    0.77180276417004    9.51140743029603
C         5.27497172923353    2.30314067666746    9.84051871772840
C         5.30923772202221    2.41245311360979   11.24186628704018
C         4.20034327150117    1.71234149583309    9.19147321055038
H         4.16794602640233    1.61545922735570    8.11796103267102
C         6.85707437498167    2.95539533663462    8.01346730682487
H         7.34040436446758    3.92722235025543    7.85797058439093
H         5.97787660831312    2.89310838622728    7.37010412452977
C         7.86473107003940    1.30214275383330    6.38540595330148
H         7.13973079842940    1.59628172640243    5.64272289501885
C         8.13123101693574    2.56076523881257   13.34671157515756
N         8.72428351277860    1.54311082525922    8.59072020166435
C         7.85282730982489    1.87751434444429    7.65007785345606
C         8.54373080483684    1.40218414352690   12.70471515253177
H         8.02225534852479    1.04597943349246   11.82919118578520
C        10.30008200055984    1.11440368893577   14.31830370096816
H        11.13992335933432    0.55167080802389   14.69592272142301
C         3.20358144143406    1.34877954882680   11.36996837575655
H         2.37755943970874    0.96225899225240   11.94561673970427
C         8.82665909712106    0.34605839554726    6.10234746971046
H         8.86275398359509   -0.12258788485921    5.13055592538747
C         9.88455067390451    2.26482632275511   14.96976238066533
H        10.39787291688574    2.59970534223236   15.85828364380221
C         9.73696317504402   -0.00246649070688    7.08931655325021
H        10.49654393250634   -0.74608548015733    6.90993773520104
N        11.85510504614351    4.40024173051338    9.07616977048800
C         8.71848198210879    6.80349761595453   12.30458797597005
H         8.03997036690772    7.03493743703373   11.49414863113754
N        11.91055031308669    4.56296812070954   11.23351753334562
C        11.16097262988078    4.14215656882310   10.19992137360444
C         8.73372486864053    6.75121285203841    7.43399552794176
H         8.42445242158665    7.65327636851471    7.93963645095210
C         9.54866895995302    4.45161151092613    6.13705303961416
H         9.87175368428692    3.55443792569492    5.62855038185942
C        14.08941137285786    5.49747631421236    8.59587513432967
H        14.07076867320702    5.42802947316608    7.51985682457954
C        11.39755659294482    4.05046993765732    7.75836652886153
H        12.23422159953249    4.16580481215834    7.06302019228088
H        11.10369261240230    2.99441948573467    7.76128865149920
C        15.18883957314938    6.18965707178842   10.64164047507180
H        16.04055315410971    6.65706086799727   11.10987095458675
C        13.08305888573680    5.12785602562894   10.78047840823159
C        13.04853629467714    5.01917560205297    9.37908374603079
C        14.15816993991202    5.71765537519815   11.42963467183557
H        14.19076719246860    5.81405000830613   12.50318588084561
C        11.50092345312349    4.47544015267920   12.60747592875800
H        11.01746973475666    3.50359956482544   12.76247003908004
H        12.38029348084546    4.53716360584501   13.25065827469290
C        10.49419748374629    6.12782393985970   14.23692030749810
H        11.21954517640603    5.83319173820728   14.97906571451210
C        10.22607375722212    4.87398924669516    7.27486195735391
N         9.63358493805987    5.88828132431871   12.03187131382120
C        10.50544635545082    5.55321736381016   12.97189192357031
C         9.81547319131135    6.03311632810533    7.91709741045605
H        10.33799524756135    6.38866969593932    8.79224607892613
C         8.05819782571008    6.32288940578771    6.30490794259363
H         7.21875862407678    6.88661662704393    5.92787715892577
C        15.15490171837288    6.08147637425401    9.25117055387533
H        15.98111912383192    6.46767820988233    8.67558935280859
C         9.53245843170506    7.08377660899115   14.52104621111874
H         9.49683725571829    7.55179730652698   15.49315764944354
C         8.47178072863221    5.17188717356068    5.65324395824406
H         7.95728600166202    4.83751638398844    4.76521081613764
C         8.62170964837996    7.43297983552696   13.53472770985143
H         7.86224551353244    8.17651493041340   13.71495157551681

