75
CSD_code = LARSOP | q = 0 | S = 0 | Stoichiometry = C38H30N4O2Zn | MND = 4
Zn       10.53528018361402    2.57776164782640   13.23227387034657
N        12.58869566644907    2.62680337077855   15.03354866200048
C        10.69135659962775    2.05473174276367   16.15952516424827
C         8.33353204652869    1.83817037146576   12.08306498263292
C        13.01801786154294    3.02423913127326   13.85807496736813
C         7.32156355455416    1.03459526149025   11.36843026210813
C        11.63638579925681    6.21163379021179   16.48440101389104
C         9.28845081885635    1.65848511655758   16.08904645439994
C        13.06568113206294    6.26275497439653   14.50786152863268
H        13.18802409574642    6.10413948062560   13.44689684264382
N         7.87154256953276    2.89239079597495   12.71623247340378
C         5.96193324904730    1.26563736896700   11.56375842552777
H         5.66404657131322    2.05610531760743   12.23390974006962
C        12.73318988581042    6.66060459258308   17.24612350737937
H        12.59963220673366    6.81869949862391   18.30730686151613
O        12.30603436279385    3.13040920656583   12.80308306848346
C         8.35178754504907    2.23944817614941   16.91386628396337
H         8.66234585681164    2.93034385522668   17.68415438183975
O         9.54844411365477    1.44729149197292   12.06846983360152
C        14.11134713339280    6.69271342592249   15.27496912903028
H        15.07451571721210    6.88055764925012   14.82450594562107
C        11.36440959980933    2.31493277135864   17.46698965195671
H        12.39567039180728    1.97453214202652   17.39960458341898
H        10.85036704460171    1.81343253889460   18.28180622105664
H        11.39109271377773    3.38852442412959   17.65626736517311
N         8.82404885396354    3.58006917938005   13.38757298041928
C        11.81058789953396    5.99329464413674   15.09220940754478
C        13.94525991406265    6.88780162301026   16.65491727657139
H        14.78411457705480    7.22386563896132   17.24655619419683
N        11.29512335892105    2.23420190083784   15.03365681196842
C        15.00803411463620    3.73724599035129   12.56597622128871
H        14.39758556095689    3.66359518153713   11.67855713615978
C        14.43909788393333    3.41964926815230   13.79621394887273
C         5.02847756525047    0.48288638062450   10.91222437721150
H         3.97367950680303    0.66118882892264   11.06529320335775
C         9.52177775023194    5.20014356940942   14.92989659138769
C         6.55732950617020    1.13419480143994   15.68526362241984
C         7.02784775521585    4.89101239098527   14.38503909663241
H         6.50340614825216    4.77482402517269   13.43911267999412
H         6.92698120160249    5.90807961928800   14.75358785469374
H         6.57083183432254    4.20121927487902   15.09519583976745
C        10.73450435504079    5.48660167927225   14.34079242974678
H        10.86587973938225    5.34850981377389   13.27572968891847
C         8.46331000340216    4.53191457917885   14.18048072904984
C         6.97651748748793    2.00809504995319   16.72392017152536
C         8.86464118258316    0.73550467600752   15.10254319668722
H         9.61143240666380    0.21291618789272   14.52118946289876
C         7.53895654484603    0.47881550935930   14.91185156453450
H         7.22035045829743   -0.22114916958629   14.15310640825947
C         5.99554301537083    2.65218222634932   17.50966346972416
H         6.31732602594187    3.31120612936132   18.30410110784925
C        10.36532336632924    5.97441910311123   17.05331388985694
H        10.22498440064386    6.17481430847959   18.10686777144866
C         9.33381934900681    5.49573289641401   16.30012028051947
H         8.37028592342357    5.30441377372796   16.74748176602819
C         7.73078990475418    0.01106445368986   10.51850760463862
H         8.78823626598773   -0.15760282308591   10.38264323257239
C        16.32905096161275    4.13660708108447   12.49348145915989
H        16.76749915572405    4.38151635836867   11.53685138419267
C        17.09081146111327    4.22402194486887   13.64742313905311
H        18.12283256644521    4.53924833498004   13.59061554875314
C         5.44072303982384   -0.53265796590782   10.06242733618809
H         4.70765877050541   -1.14234713251056    9.55411251920479
C         6.79222428663304   -0.76662880230939    9.86656776804503
H         7.11274333138388   -1.55830509123293    9.20503690125008
C         5.17861677607277    0.95035727884923   15.46025597555287
H         4.86994306642919    0.29211893820482   14.66107652581656
C         4.66550676823622    2.45438398676282   17.26526778747516
H         3.92094293912350    2.95583708908312   17.86613330992101
C        15.20936541615264    3.50620258803613   14.95278930053178
H        14.75174577162567    3.26329296770976   15.89794044198165
C        16.52881590923430    3.90727375802596   14.87494533729100
H        17.12504728713326    3.97687496730717   15.77335654613639
C         4.25348368630605    1.60081699768344   16.22911767246795
H         3.19795822679849    1.46273784738227   16.04714380990617

