89
CSD_code = LARTUV | q = 0 | S = 0 | Stoichiometry = C34H39B2N8PRuS4 | MND = 6
Ru       10.29644199980401   12.36393993514204    3.80957929186144
S         9.43025795305981   14.59393956151072    4.40273370297367
S         9.45247288243071   12.87006242324342    1.54065069689316
S        10.91287952600014   10.03360672115189    3.22280094385229
S        12.50776318449135   13.29164746781542    3.31303970908392
P        10.95310266037417   11.90192564357213    5.94809776637511
B         7.46320626563247   11.95819984744854    4.10449004398576
H         6.82590914388009   11.01837491322341    4.45125342818589
H         8.68233802033910   11.69307030461411    4.08430113958538
B        12.92962750800927   11.11876418820302    0.76448005308700
H        13.61331791862348   10.79528923607915   -0.15460200732077
H        13.37089313012378   10.86688260024508    1.83076579493253
N         7.01369342836346   12.39637026642814    2.69511988168338
N         6.97452536362947   13.04432419246686    0.59583275948336
N         7.22763323637858   13.13394676629709    5.07374990485006
N         7.45207906615398   15.03112045324185    6.15603507922144
N        12.64773118826300   12.64569861752721    0.64603022532290
N        12.13341351456858   14.72868568571541    1.09170787484322
N        11.53475396153996   10.44389483088152    0.58651026571508
N         9.55036877172563    9.58705979396245    0.95415369953354
C         8.00770828310512   14.22062300841085    5.22205535323856
C         6.30229753971494   14.43186028671560    6.60750147409629
H         5.68865439065698   14.88232091646704    7.35961076266758
C         6.17204111179835   13.26494781300738    5.93600110469961
H         5.42029861382313   12.50655387968132    6.00631635868863
C         7.98755556582442   16.28501711164281    6.59701331833569
H         8.01414401372716   16.31592106175175    7.68684298091388
H         7.38230304812162   17.11471692511733    6.22394587114705
H         9.00116506920399   16.37425730107347    6.20622510994185
C         7.78068008385508   12.76824104873568    1.65433317046607
C         5.70766600267268   12.45419701048336    2.28305031930762
H         4.90919173565504   12.19992169674090    2.94834073147179
C         5.67356081389337   12.85445187513551    0.99210205847472
H         4.85013489081438   13.01661183277656    0.32785889669964
C         7.43883069924205   13.47101859457668   -0.69113029124478
H         7.65350616595437   14.54278013556644   -0.68842385219780
H         6.68036044601654   13.25473718880755   -1.44125438176536
H         8.36227288843755   12.93993382788261   -0.92857664212478
C        10.68000750289255   10.06276833439332    1.53963434746309
C         9.70058684295475    9.70177094760744   -0.40197461063353
H         8.93407284004420    9.39537391441153   -1.08424902028026
C        10.92842591691839   10.23464881182724   -0.61477938545702
H        11.42236175860925   10.47227069715012   -1.53391463133275
C         8.40155093332643    9.07933423191196    1.64439482762350
H         8.34837101307608    7.99194523847811    1.55610097331111
H         7.49090160204674    9.51928434115430    1.23386844026744
H         8.49301891049943    9.34381312430504    2.70026192373446
C        12.40140156984037   13.51562349028965    1.63072673193990
C        12.50777359355374   13.31553374686726   -0.53071545510474
H        12.65654291375056   12.82470801309137   -1.47003146167672
C        12.19082055037290   14.60825758080767   -0.26668812625964
H        12.00594648368740   15.43571159251771   -0.92080449868898
C        11.80113503572001   15.89793142455460    1.85096115659358
H        11.03843466500673   15.64269865611683    2.59200158999690
H        11.42332977625533   16.66813208069892    1.18212286095236
H        12.67953506990041   16.26598495061828    2.38455525797009
C        10.02465469874125   10.51364137642535    6.67855638939854
C         8.68249576491864   10.67890459982956    7.01381372767229
H         8.21869798802618   11.64830772189183    6.89631911144503
C         7.94164324812412    9.61146029286906    7.48412971214273
H         6.90352927212586    9.75297746419953    7.75138679415385
C         8.52617649542140    8.36112000657473    7.60533138598890
H         7.94571165162750    7.52586857443397    7.97017453216511
C         9.85163091620070    8.18313559335919    7.24584187627086
H        10.30549781957810    7.20572140546670    7.32387512988751
C        10.59916368866007    9.25053523131496    6.78219087809389
H        11.62917746500406    9.10706351866373    6.48975010737609
C        10.78407749080211   13.27338924150172    7.14355894569584
C        11.47890915221892   14.42591073691894    6.77647183399687
H        12.03818989258616   14.41987492304244    5.84733896118302
C        11.44637887971703   15.54730920233623    7.58135850101089
H        11.98813435809608   16.43636515565715    7.29287640141898
C        10.71421427305470   15.53154633662932    8.75942944824349
H        10.68271072236083   16.40924802751583    9.38961328715349
C        10.02985728585708   14.38742266745992    9.13183733428008
H         9.46959163954892   14.36862621734748   10.05675418764035
C        10.06514220530110   13.25677035684465    8.33129462378955
H         9.54659700019250   12.36184335469964    8.64489650072331
C        12.66722052753260   11.40917330126858    6.34490124820822
C        13.50864873471855   10.92137813481689    5.35297611640168
H        13.15258138608735   10.85574579308929    4.33546941329623
C        14.79616713269005   10.52398947921442    5.66881232213655
H        15.44518972286131   10.15082635604055    4.89034205564185
C        15.24914027123382   10.60655403271431    6.97397595535782
H        16.25582211023294   10.29994456932657    7.22030212361774
C        14.40881124411508   11.08194603965899    7.96878680408219
H        14.75848388647108   11.14206885271808    8.98999558831280
C        13.12276703862793   11.48128135549658    7.65955223269901
H        12.46908897298156   11.84964394048434    8.43857295315969

