55
CSD_code = LARVEH | q = 0 | S = 0 | Stoichiometry = C16H24B2N8RuS4 | MND = 6
Ru        6.80139008910682    3.71377244842325   32.47949941923871
S         5.88734510823125    5.57452401428458   31.21840233870506
S         5.93899099201514    2.13853277795057   30.85073835637801
B         8.67948770180283    4.10926686391189   30.44395444643602
H         8.30522951265207    3.71861899934803   31.57329597969654
H         9.82429244077032    3.85504408534574   30.26611311918191
N         8.45981498493265    5.62945822598323   30.33901808845442
N         7.45224275039980    7.57854295559761   30.34746050876883
N         7.81537703040308    3.45097732384648   29.34152300387460
N         6.27363382487193    2.37124689636745   28.21173322818362
C         7.31066581585659    6.26221535735543   30.63592784853642
C         9.33665923532392    6.56543097550913   29.86567490345426
H        10.33081970127207    6.29501943876477   29.57618266631524
C         8.72434757561730    7.77215959411041   29.86604405618056
H         9.07764226927966    8.74021411839262   29.57721081741350
C         6.44416206710376    8.57756919722994   30.54355756309844
H         5.94602227235444    8.81801442553693   29.60121947758056
H         6.89223684577852    9.48138288130080   30.95571765489660
H         5.70563825095228    8.17788190120993   31.23884423434396
C         6.70840216816757    2.69429649812112   29.45646734595583
C         8.07036201331963    3.60504599652266   28.00460255018170
H         8.90722530886116    4.18034745581976   27.66683677944831
C         7.12688335958306    2.94036558320682   27.30029962440394
H         6.98561270385721    2.82735821159575   26.24542324974504
C         5.11928762695248    1.57279466408193   27.92390073050282
H         4.62844158070667    1.94592817129307   27.02594586233351
H         4.44075920498938    1.63610940448888   28.77475507910035
H         5.39734843513884    0.52635480069796   27.77722337400412
S         4.73284454411775    3.57488162096471   33.74044174463040
S         7.73432265074386    5.24828486458032   34.10832962270448
B         7.39794838282924    1.88955814421172   34.51497086988477
H         7.54917477544020    2.40905189061301   33.38566238865507
H         8.19052690982352    1.02526050870848   34.69281002960938
N         5.97162125102185    1.31963320724145   34.61985847729724
N         3.77987366144078    1.21769303948528   34.61150978037792
N         7.53588327930059    2.96700480494865   35.61745009299532
N         7.69998799811006    4.84199940470258   36.74734305923616
C         4.84905233028578    1.99844501562945   34.32298209622551
C         5.59947045000042    0.09231063235263   35.09329092095312
H         6.33073709054439   -0.63345157982832   35.38278199202558
C         4.24824992294305    0.01923214439174   35.09297019763202
H         3.58654658928385   -0.77074307581002   35.38186591022330
C         2.41069579815647    1.59137019718520   34.41545620852980
H         1.95434061195024    1.90562822511732   35.35723856064804
H         1.85126174911100    0.75047781707093   34.00628194025698
H         2.38738049084288    2.42879259593974   33.71775305241182
C         7.63770455163895    4.30401814444700   35.50257069852168
C         7.52985235362227    2.66907878108475   36.95435565089549
H         7.45002471510630    1.65666500499875   37.29206092381497
C         7.63369657918981    3.81845745200836   37.65872256302193
H         7.66084815141446    3.99725163916433   38.71361061843209
C         7.81436255720761    6.24089119756476   37.03528632214087
H         7.24567653733866    6.47940611693243   37.93317277714845
H         7.42045166083933    6.79694553505237   36.18439784611680
H         8.85964353754307    6.52318340509150   37.18215334939258

