57
CSD_code = LARYOS | q = 0 | S = 0 | Stoichiometry = C21H26N4O5Zn | MND = 4
Zn        3.90856734283848    0.78517990270459   12.19968196457275
N         3.09270617486822   -0.30800336476964   13.70614912195161
N         1.66616554337357   -0.94885438174805   15.23557510906807
N         3.89122219447263    2.33818029613752   13.56322842899393
N         2.88764396752450    3.86661647452343   14.77031173351752
O         1.89496696175929    1.69379031911398   16.43085311680382
O         5.81006249694642    0.02876978643626   12.36936680014411
O         5.30981529681302    1.65544632749291   11.00846470737274
O         3.01795934614672   -0.32305039413167   10.76587598822301
O         1.95393850370255    1.40736987639584   11.56317001557710
C         3.03258229232704   -1.66179524874571   13.68427009861233
C         2.15064387543684   -2.07533244526687   14.63158372513691
C         2.27795117549357    0.10820292631729   14.64841006664514
C         0.66352952886916   -0.98474654031778   16.26718297381752
C         4.48126235343635    3.53400083889070   13.31202563887615
C         3.87054135981426    4.49294982149977   14.05664868694099
C         2.93142383151800    2.55199128977767   14.43579322442031
C         2.00635264714663    4.56911733375957   15.66677192842573
C         1.96577037976853    1.54138728340094   15.00757615690673
C         0.57599390424719    1.84880390430102   14.41707826799716
C         3.13567198963589    1.63528117482977   17.13750612391980
C         3.80608530139637    0.28646373050267   17.10505180187767
C         4.79705785312460    0.01353015094735   16.16998031388032
C         5.36923867725185   -1.24445764649148   16.10495467531430
C         4.97177133858321   -2.23467536321097   16.98719245173576
C         4.00357930252209   -1.96216199874047   17.93905965511367
C         3.42169139389563   -0.70798783911929   17.99649330900045
C         6.12922509823952    0.82637248379771   11.46288669831774
C         7.53802497649397    0.79736052229946   10.90391131519285
C         2.03472677338560    0.44701593501727   10.76768355857411
C         0.90906518407195    0.19835647047867    9.78088931859191
H         3.62623600818734   -2.21555109969709   12.98785299873307
H         1.82782987905082   -3.05136269264168   14.92949734832206
H         0.61975320640663   -0.02662439494672   16.77783783768023
H         0.91787147175539   -1.76449377773047   16.98562514366813
H        -0.31326088987742   -1.21392434844433   15.83325335622709
H         5.28625313233953    3.60637637437857   12.61090749287063
H         4.04209871377377    5.54609686410381   14.14256693452921
H         1.52946405121538    3.87244919016405   16.35155585381627
H         1.24159340981228    5.10558409655778   15.10018131480399
H         2.58405031772312    5.29508419648510   16.24051270895684
H         0.66759946977350    1.78953645804353   13.33387036722610
H         0.24315639420421    2.84194426506604   14.69898142187707
H        -0.15607970544027    1.12550629960560   14.76208590629024
H         3.82542267945090    2.39510074253637   16.74954344680910
H         2.85465683795019    1.89813194339506   18.16169650556992
H         5.11221559386673    0.77401951108224   15.47172370084950
H         6.11706079758581   -1.44334656797862   15.35410117613137
H         5.41739355587858   -3.21687848868360   16.93666579564115
H         3.69952947208383   -2.72753938469327   18.63881400525568
H         2.66510727384544   -0.49517397656388   18.73908367196626
H         7.78159623935348    1.75584300993577   10.45580751972655
H         7.58179871300396    0.02717549071540   10.13718590907880
H         8.24366380187911    0.54597756105847   11.69029595319176
H        -0.02417132836339    0.59886760559908   10.16621301844727
H         0.82150921718991   -0.86532552491197    9.58118479932152
H         1.15491462230131    0.70880502148928    8.85242883742304

