55
CSD_code = LARZEK | q = 0 | S = 0 | Stoichiometry = C26H20FeN4O2S2 | MND = 6
Fe        7.50915951239586    3.13360292954344    0.88582129609018
S         8.07633300696461    1.41330456214104    2.18494935481688
S         5.95467015783106    3.80504773590168    2.33558497556348
O         9.90682999579416    6.25008505292686    1.66412446395546
O         5.82638276947171    0.78596413966670   -1.89328037534409
N         7.27149262495192    4.70969138387274   -0.11509347322046
N         8.89905647433469    4.15930064584422    1.76098502414269
N         6.12795837728286    2.11762911378751   -0.01392099198327
N         8.60122666634468    2.46757659783913   -0.49480758505903
C         6.39565182084000    4.92956068369016   -1.09148244716900
H         5.72369519565846    4.11552267928375   -1.31668830351729
C         6.33175916715513    6.12047576470968   -1.78970598034919
H         5.60055195971062    6.24374348571597   -2.57273161878358
C         7.21585478582421    7.14185498758401   -1.46616633426730
H         7.19044364810475    8.08320714199506   -1.99318818887232
C         8.12641562559265    6.91821029610896   -0.45020088104026
H         8.84537317262596    7.65877316941087   -0.13621353057248
C         8.12462013567660    5.69326917545641    0.20131522964152
C         9.08971395908130    5.40773588400381    1.30579625884230
C         9.62161071161159    3.60279565018992    2.78451030190403
C        10.61737555462827    4.24916120283072    3.53308305804990
H        10.85544797356597    5.27267706059722    3.29652026536176
C        11.27406969261234    3.58861323459931    4.54937082329888
H        12.03376390766742    4.11147691832805    5.11157871316790
C        10.97971841395763    2.26720929340056    4.85748318190521
H        11.50411130259220    1.75804687282353    5.65130918278608
C        10.00813997030199    1.60568153417331    4.12973466888420
H         9.76530850997018    0.57421429498710    4.34002894080481
C         9.33377791812067    2.27055709081686    3.12233980215482
C         6.73422445766461    1.38538770182614    3.44522796450274
H         5.91726159748670    0.83491777042702    2.97726301386393
H         7.10145167652534    0.83297514648274    4.31024946193441
C         6.30662366805330    2.78137995328242    3.82505331805294
H         7.10284550309598    3.30976452653088    4.35067333500512
H         5.40647682700189    2.76793870056341    4.43969201476317
C         4.60725579718267    2.85489536067496    1.64541564880130
C         3.35797963401315    2.91203679653661    2.23506514355922
H         3.21109455393820    3.53095053647197    3.10826392430596
C         2.31484640516471    2.17588652436570    1.70483916513470
H         1.33904424022073    2.20844543312282    2.16433785299990
C         2.53848709422248    1.40229367986718    0.57380652413623
H         1.72802579787588    0.82598650152722    0.15235449005704
C         3.77776352330850    1.35775358555282   -0.02837795187245
H         3.94168996947911    0.75969858584291   -0.90910883735315
C         4.85488699136151    2.09032487462551    0.49393464346501
C         6.49982858558370    1.47167164631586   -1.13043875783342
C         7.95312966622601    1.70615508914008   -1.38675054934139
C         8.58095426471058    1.15655253367887   -2.49524018815051
H         7.98913495440669    0.55461579403293   -3.16705381466160
C         9.92747290266438    1.39795044590907   -2.69503886912510
H        10.44605474033895    0.98610706495705   -3.54709297503622
C        10.59642178345772    2.18531670500980   -1.76653553482483
H        11.64724356050961    2.40248894689178   -1.87431009482773
C         9.89716503933266    2.69488430828469   -0.68891845554826
H        10.38572375550512    3.31003320585098    0.05123369680038

