80
CSD_code = LASCUE | q = 0 | S = 0 | Stoichiometry = C31H44Cl2N2Pd | MND = 4
Pd        4.73790847063760    5.12060960848973    2.71622220960189
Cl        2.83364692158362    5.41692663578508    3.84891904054430
Cl        5.53608359061852    3.99597201049101    4.47067077303903
N         4.03048866180052    6.24569880614147    1.19509884256786
N         6.49563758815141    4.78302424590641    1.73582525518771
C         4.82756558541156    6.92433020040946    0.47317633280365
H         4.43766085858660    7.56790381887954   -0.31872331351321
C         6.30464258703832    7.00189080271432    0.72037235932689
C         6.93060822527758    5.64911939681717    0.91098623564470
H         7.82762441911076    5.44393717628598    0.32297014878006
C         7.06556819430183    7.79676995495232   -0.34633610323420
H         6.47335735802579    8.66198837073931   -0.64839943165707
H         7.28266427236371    7.20251338550704   -1.23373955947702
C         8.32886307974014    8.25987983007531    0.37798997927072
H         9.06544844417504    7.45600913010320    0.39736018412486
H         8.78645096405538    9.11662987218790   -0.11321802295283
C         7.86611274086919    8.59121904380774    1.80516935986729
H         7.72731668306129    9.66595552378160    1.91909189559413
H         8.60639169545789    8.27909367920684    2.53968590204340
C         6.52335834351620    7.86987477787643    2.00191274259935
H         5.72367222928251    8.60823005785526    2.05760242372224
H         6.47742141277401    7.25199936697995    2.91289208080262
C         2.63646861495065    6.45883766757254    1.00427629896188
C         2.05189609818718    7.61422305866124    1.54224171871040
C         0.71333130099229    7.85923774749872    1.27358594964483
H         0.24965629906960    8.75084776871299    1.66436000054556
C        -0.03871415524623    6.97876550361229    0.52148100557015
H        -1.07864921172546    7.18885956781618    0.32122070136634
C         0.53505993289427    5.81352013806540    0.05360214950963
H        -0.06774031208732    5.10913433760162   -0.49696062776238
C         1.87560386227244    5.53805787000136    0.28144210253566
C         2.82700127806851    8.55294402877192    2.43981689644527
H         3.74450069848269    8.04166757742066    2.75986548299096
C         3.18515475666940    9.84302998169974    1.69648531922150
H         3.76790213762327    9.63840655294683    0.79919146318161
H         3.76041059912521   10.50422168691340    2.34197053872744
H         2.27945082652633   10.36475224028931    1.39517576574792
C         2.05109037091607    8.86995687698011    3.71933491836739
H         1.76257160954594    7.94150608881036    4.20421019840668
H         1.16053147957274    9.45908885380449    3.51851827025434
H         2.68528862241697    9.43391852187172    4.40011727011249
C         2.47181467408129    4.22150537026312   -0.15296993785155
H         3.56659784166587    4.30423152876692   -0.13550369030584
C         2.05525502665689    3.81430388263956   -1.56646112220944
H         2.63451794644895    2.95261275336153   -1.89165602622575
H         2.22799155504156    4.62817494193194   -2.26813867154756
H         1.00421498694927    3.54201812763494   -1.60468552110632
C         2.04412920234298    3.17112808843893    0.87848961350086
H         2.38630965449808    2.18305295140502    0.58192132285517
H         0.96032888908832    3.14970322203376    0.96504623538524
H         2.45859915797187    3.42056191251533    1.86168090283945
C         7.31040989407018    3.66657825112577    2.03591932649822
C         8.59036287205339    3.88249528794979    2.58018086912701
C         9.37650612802776    2.77905953085005    2.87883570531985
H        10.34824010695720    2.92873744306799    3.32198408526952
C         8.94263591750746    1.49534109221144    2.62118531016502
H         9.58161121324816    0.65240347125346    2.83727426238077
C         7.67622296528521    1.29413744720027    2.11044339948175
H         7.33453814700669    0.28782036552174    1.93422255918963
C         6.83612709971572    2.36275183701569    1.83580654061951
C         9.09380920956828    5.25069310584258    2.97941982367262
H         8.45977738781484    6.01528586624990    2.52995210015616
C        10.52394935580898    5.51363801664675    2.50236407869229
H        10.62012894150102    5.31344862292613    1.43619275989384
H        11.23976239417227    4.89082033754557    3.03104509823838
H        10.79041624866697    6.55320709332496    2.68475813716646
C         8.97504951355452    5.39133689089052    4.49965082564306
H         7.94683353291379    5.20597462017568    4.80580166412176
H         9.26418679793330    6.39288011219982    4.81284689198824
H         9.61361087849051    4.67132309340155    5.00470334474636
C         5.44760165675167    2.11695518066467    1.29636242142403
H         4.80420362605260    2.96813053118414    1.60472714947597
C         5.50106796917494    2.05196426488919   -0.23338456930632
H         5.86109121617738    2.99104701142802   -0.65219367678347
H         4.51537064940630    1.84589291173150   -0.64239658921548
H         6.17604636345765    1.25782063140517   -0.54831945990450
C         4.82092647169365    0.84867440163223    1.87637016567646
H         3.75805900166762    0.82083155087128    1.65136466594152
H         4.93832804702321    0.84205218192445    2.95691869584223
H         5.27236032546253   -0.04934569415746    1.46097655194848

