80
CSD_code = LASDOZ | q = 0 | S = 0 | Stoichiometry = C31H44Br2N2Ni | MND = 4
Ni        0.36806381062427    3.34056482753887    8.52487200387592
Br        2.38452782057069    3.83180621186609    9.19769875280828
Br       -0.75138619226367    4.51371403455195   10.12574382889730
N        -1.11841505806364    2.43107666359470    7.95832822853762
N         0.28508865754406    4.49053014925114    6.61592610506323
C        -1.96752143249465    2.68855821502216    7.05187923473384
H        -2.71261985914191    1.93188224500660    6.79389403058168
C        -2.11188502963628    3.98645603931652    6.32864947788319
C        -0.84619841264340    4.75937023102389    6.11670254446881
H        -0.96095761003103    5.61735552458835    5.45138314089194
C        -2.81835700775222    3.82165764858800    4.96850977234989
H        -2.11723422245690    3.54959412512089    4.17883166139266
H        -3.56140927539941    3.02659575706341    5.04707956024717
C        -3.51249951402512    5.16342132343655    4.69580345472725
H        -2.92533410577039    5.76868744254748    4.00516344633818
H        -4.48490340514876    5.00060802500188    4.23353410639734
C        -3.64583282348012    5.86795885347966    6.05912716230935
H        -4.67796586956926    6.13957213920533    6.27324502017506
H        -3.05659845130585    6.78379223450058    6.08022429778386
C        -3.12425974453922    4.87778623768333    7.10008801539516
H        -3.93819587473959    4.24315343664915    7.45442285598830
H        -2.66760762374742    5.35983105574206    7.96313225933912
C        -1.18671232334643    1.21213399600604    8.67350247767814
C        -2.28613993729576    0.93854343091390    9.50277083366396
C        -2.31390262026564   -0.28375326739033   10.16097894212469
H        -3.14956869512282   -0.51591155319930   10.80198072629915
C        -1.30033843849047   -1.20820757327774   10.00904639796564
H        -1.34964179512651   -2.15494490835105   10.52531364473645
C        -0.21605208761503   -0.91832303205801    9.20225655455632
H         0.57473445704729   -1.64262355276940    9.09373704087392
C        -0.13307144056386    0.29322725495209    8.53541802733449
C        -3.40721130011942    1.92537141984630    9.73088340911387
H        -3.16953133025964    2.87095653412141    9.23751898135984
C        -3.56446541258024    2.23782561437169   11.22062007358752
H        -4.32472240498750    3.00323614439543   11.35263176669650
H        -2.63059967403972    2.62099583790271   11.62163724103887
H        -3.85857552363082    1.35789350274828   11.78597845570343
C        -4.71995025777125    1.39037571759061    9.15103444123194
H        -4.62420139930733    1.17123355903019    8.08818873390243
H        -5.50961559552760    2.12674646234919    9.28163871834837
H        -5.01952485670201    0.47547644439322    9.65619327786054
C         1.03190170854565    0.59073197327213    7.61639051078454
H         1.14554135853697    1.69121403652826    7.52069616154744
C         0.72944705586366    0.03116623594597    6.22417102309201
H        -0.17170752199752    0.48079678936284    5.80688377177909
H         0.57817933459446   -1.04554376605973    6.27966973364251
H         1.55771834625153    0.22860966199453    5.54756210792587
C         2.36255022044569    0.05844183827344    8.14340758466306
H         2.51119750003774    0.35890014671016    9.17846170415971
H         3.18071581456534    0.46515989862835    7.55362797408579
H         2.40978273521260   -1.02620577130598    8.08035071139215
C         1.37138380440043    5.35129025185286    6.30881148706032
C         1.39027039775712    6.67464479600618    6.76711563304116
C         2.48170734956728    7.46384405318219    6.42988502644499
H         2.51926185497121    8.48449415818677    6.77701424705513
C         3.51557349913952    6.97109750856756    5.65972350889408
H         4.34889738712084    7.60737109152701    5.40189735987092
C         3.48795132581114    5.65872847532403    5.22940112848053
H         4.30171839568774    5.27609487005893    4.63358370945256
C         2.42634599655917    4.82944979426516    5.55377002998190
C         0.31225139998922    7.24425193800710    7.65896642474741
H        -0.42555559694176    6.46866042703368    7.88234375483355
C        -0.41260779281588    8.40463552837090    6.97327559604599
H        -0.82280169026675    8.09828683851900    6.01149619330737
H         0.26684961512213    9.23498858945295    6.79826975131967
H        -1.22692563220826    8.75569463049741    7.60309901076179
C         0.90830379305006    7.68849984718967    8.99633053313487
H         1.46502583832017    6.87118846367682    9.44635488764382
H         0.11055622922832    7.97113988628114    9.67845747055271
H         1.57949965985573    8.53377394123943    8.87075679110947
C         2.39301257460914    3.39938117670059    5.06757714404390
H         1.55030084238056    2.89230584309580    5.55002104111615
C         2.15875053573995    3.35573468862833    3.55585536339730
H         2.10155684960497    2.32506464699540    3.21049395700445
H         2.97112140918375    3.85040303299616    3.02911215457140
H         1.22843820510802    3.85921011910524    3.29673654442009
C         3.67646443574056    2.66063692008031    5.44773872607192
H         3.59446709165399    1.60517896927424    5.19306369239388
H         3.85941457604486    2.75581347364596    6.51579062349415
H         4.53423295269693    3.06604054453336    4.91836822240593

