95
CSD_code = LASFUH | q = 1 | S = 0 | Stoichiometry = C49H43NiP2(1+) | MND = 7
Ni        4.11441304042833    3.94999806701385    3.29508378839580
C         4.30264851611251    1.87984350497085    2.85194420836193
C         2.95944011411545    2.30972135832171    2.73558961575300
H         2.34540736987573    2.22281399102992    1.85215753109867
C         2.54933136658925    2.83836879015066    3.97262278886491
H         1.54021046032465    3.13417081019540    4.22122746934278
C         3.55080746750360    2.47589454565428    4.97633107330532
C         3.55672865925706    2.55605460534938    6.36220718408361
H         2.72178234619507    2.98753251969660    6.89486727879457
C         4.65344406068703    2.04769401354333    7.04357797937771
H         4.67234871120256    2.08972781910345    8.12192933895577
C         5.71833603453758    1.46603310923621    6.36514140333088
H         6.54679405488516    1.06320311726372    6.92747011708834
C         5.72880169148314    1.37478403299609    4.98094426492926
H         6.55286762835283    0.90315554090745    4.46678815426759
C         4.64453687259383    1.88485302064656    4.27950309788346
C         5.03451725150019    1.05747469289639    1.84646713571858
H         6.11360936917853    1.16423362037447    1.97360209244389
H         4.77344826956605    1.35646218781411    0.82940004355684
C         4.64958519215061   -0.42676617118632    2.05060711418890
H         5.26439970754923   -1.02918054616318    1.37877888112838
H         4.86845473575171   -0.71818673209293    3.07912448492075
C         3.20355836388745   -0.65651774084954    1.75006077291048
H         2.92905370565794   -0.58874150677290    0.70526185267397
C         2.28530078250237   -0.89683435050369    2.66741915675944
H         2.53584499077335   -0.96873924869080    3.71364608914103
H         1.25050237697079   -1.05019987162881    2.41446436402047
P         3.36577320587189    5.79856616461567    4.21108632250499
C         4.72971048154413    6.68735129488702    5.02194115975202
C         4.96001505967535    8.05218656165050    4.93493542888624
H         4.32608352181937    8.67506614286160    4.32266021162950
C         6.02076557709620    8.61050557388037    5.62821661356463
H         6.19962035601371    9.67276986871286    5.56229258489116
C         6.84901908126390    7.81700573008635    6.40365937950995
H         7.67088990500678    8.26170572309882    6.94318719708211
C         6.62749139933926    6.45086123580211    6.48454748847039
H         7.27522126656567    5.83104238569788    7.08678049878050
C         5.57305239661933    5.88813286271879    5.79232185557220
H         5.37894894014866    4.81962786357117    5.84109787042161
C         2.10896132006746    5.74162925183831    5.53160532223063
C         0.77733795636491    5.57546644495180    5.15309058970641
H         0.52354807277025    5.52039740023382    4.10206415237178
C        -0.21381203996144    5.49508781777292    6.11219075745005
H        -1.24364469970659    5.37227237289613    5.81265342029889
C         0.11504325218724    5.57079775368866    7.45715294092735
H        -0.65881126569647    5.50570588893965    8.20626999951627
C         1.43691218572656    5.73090536210725    7.83736624690830
H         1.69489641705249    5.79244552865171    8.88388114291167
C         2.43512287282470    5.81241356747815    6.88114107063621
H         3.46344607950804    5.93895118158756    7.18668459490845
C         2.58161104223751    6.92608469323940    3.02658012802742
C         1.98203194655928    8.12078565950734    3.41381151100663
H         1.96697082818508    8.40606731047793    4.45634157973271
C         1.38727452070939    8.92538275535798    2.45861872172909
H         0.92561094452915    9.85527505005566    2.75409564806350
C         1.37260156035620    8.53863263638703    1.12681487553067
H         0.90427088482943    9.17184246310138    0.38913529937559
C         1.94187751890802    7.33480264671859    0.74299774981136
H         1.91457271980383    7.02548266006103   -0.29102487465672
C         2.54156364506355    6.53023875598384    1.69405095010506
H         2.98476334872153    5.57264331689854    1.42602556547319
P         5.95488230172021    4.59338074326736    2.27704300882920
C         7.40382448849837    3.56099465945091    2.66788276111762
C         7.78845815462761    3.47507917796399    4.00519453796761
H         7.22520949187428    4.01572639344143    4.75346595757515
C         8.87747960650514    2.70569966114147    4.37076826804597
H         9.17554150659562    2.65289983987307    5.40712330555261
C         9.57833398666399    1.99639518409890    3.40823831144193
H        10.42644654790839    1.39260851677877    3.69212917883718
C         9.18376613299508    2.05712767819069    2.08181782602741
H         9.72163001158229    1.49686259281204    1.33204758295497
C         8.09955216387215    2.83331946330632    1.70832318514058
H         7.79813647966783    2.87108030396331    0.67161444861242
C         5.83743712914868    4.54279324708812    0.45954219386975
C         4.70263906372936    4.01591283344570   -0.14464009754878
H         3.89877932056148    3.64040986982426    0.48002773901059
C         4.59678497695769    3.97828052725367   -1.52375749082344
H         3.71218635113149    3.56859564361207   -1.98810367881508
C         5.62806603201029    4.46992445699938   -2.30626052702813
H         5.54960680128158    4.44138286631364   -3.38209824100444
C         6.75997865046500    5.00464069485564   -1.70897966791386
H         7.56050672292841    5.39196618245562   -2.32062833915832
C         6.86748422482558    5.04672557003795   -0.33155162257499
H         7.74514032352254    5.47087475848690    0.13582230229364
C         6.60002787934964    6.29261873473986    2.47541143017429
C         7.76821514279873    6.60158603877771    3.16033674649995
H         8.34835400346385    5.82371209705801    3.63285176104196
C         8.20679851011498    7.91307647921517    3.22479142185033
H         9.12040785499585    8.14221334448872    3.75200471696244
C         7.48835627560842    8.92393688032266    2.61077389408237
H         7.83929977609489    9.94320027732669    2.65857205675440
C         6.32163295380934    8.62132483161660    1.92697457691793
H         5.75869198332350    9.40293147127299    1.43943687614743
C         5.87920527762500    7.31489795675929    1.86084979055504
H         4.97552643210860    7.07773591895305    1.31738450217613

