46
CSD_code = LASHOC | q = 0 | S = 0 | Stoichiometry = C17H20N4O4W | MND = 6
W         5.19121921256540    5.84303179116629    3.46741229611876
C         3.82225395725783    5.98910495101820    4.90063459509466
C         6.02836962511038    4.49731555647749    4.62742938788959
C         4.10851980355037    4.36023423844803    2.77159304273353
C         6.58465341109737    5.51048976220360    2.08533732804512
C         7.66494385345440    7.78585371738514    4.38525699376599
C         7.95248396643363    9.15407212649298    4.59098796997278
C         6.74115402155016    9.80406907508897    4.47621456143638
C         4.39742946660252    8.98652045535691    4.02139751460104
C         3.79491842483862    7.40121566283087    0.95841090972864
C         3.29424418929124    8.67342826122521    0.60181374993729
C         3.46737313730757    9.46208879023939    1.72122594377526
C         8.63793000118240    6.66560040970199    4.40117608396809
C         9.29777709372720    9.72596914477410    4.87409083906886
C         6.39223938372138   11.24325890268740    4.59588197333665
C         3.83345572021963    6.18440342730328    0.10914865403894
C         2.70529643562175    9.04335457697375   -0.71532209553157
C         3.13140728724834   10.88773401538840    1.97091937622387
N         6.37164500309638    7.62324283183281    4.16346268419409
N         5.81145408671425    8.84250990637459    4.21992026512187
N         4.03672836845318    8.66647237044392    2.66789408075687
N         4.23322342567972    7.42174256246947    2.20579886469439
O         3.04420909260270    5.88975937443918    5.74165244103078
O         6.44729610029477    3.66279777206511    5.29989625285577
O         3.48345069143336    3.46453293694343    2.41266060179191
O         7.39628427456094    5.19461652533487    1.33934404208836
H         3.88238526371544    8.27993954312688    4.69402893870536
H         4.09637615790830   10.01015324891978    4.24756633243759
H         8.11993475386592    5.72416947953767    4.57057399546981
H         9.37699126128017    6.82265945923036    5.18405095741186
H         9.16146473478029    6.60403779402599    3.44688694385542
H        10.00746489834420    9.41643201701858    4.10856578605164
H         9.66571210150632    9.36926508693230    5.83583334054464
H         9.26498283295087   10.81176712255217    4.89913591793908
H         7.28607230571958   11.81693865393800    4.82214965435526
H         5.67161194309528   11.40780427741268    5.39738211442833
H         5.97112593611708   11.62437374641774    3.66488484209791
H         2.95695283264680    5.56560033082027    0.30099643671779
H         4.71638344010463    5.59122305479209    0.33898056524253
H         3.84095079991127    6.45779977262062   -0.94294394630272
H         2.34361519010961   10.06791041436003   -0.70765141521157
H         1.87269092187059    8.38355568340593   -0.95390225316043
H         3.44906051060206    8.94626721962024   -1.50580520940246
H         2.41463992133532   10.98486019553349    2.78685121798135
H         2.68921411275062   11.31977944617416    1.07815663509798
H         4.02221004776994   11.46514430889985    2.22022078900043

