31
CSD_code = LASJIB | q = -1 | S = 0 | Stoichiometry = C8H13N2O7Zn(1-) | MND = 6
Zn        9.96545764975924   11.41046622399365    0.23844118693123
O         8.72976023200320    9.81402921298925    0.20092352817366
O         9.14321886839650   11.59735250778568    2.28475840212543
H         8.72866028781041   10.73114664549223    2.18151409275197
O        10.66336442236141   13.21228605592791    0.01955969644849
O        11.50330255286372   10.56924754989291    1.15759745639850
O         8.17932248961813    8.14685765069936   -1.15886327464734
N        10.83581302419796   10.50770532250632   -1.42953587813062
O        13.47496218375676    9.64022673048736    0.72887185293914
O        10.70835750836933   14.99472909018788   -1.30971114013006
N         8.55411787911167   12.18330910256865   -1.33382127701028
C        12.45159598709910   10.21370305048409    0.39495109943352
C         8.94468875467793    9.01000022460117   -0.75343160773256
C         8.74986582712214   13.62393150504135   -1.35282759325812
H         8.05998550458028   14.09157661736146   -0.64674578058907
H         8.59040683838143   14.06012833676585   -2.34790083373751
C        10.18348251746466   13.99278963847898   -0.85032232736310
C        10.43681140563183   11.25035463284074   -2.61183690189039
H        10.68904210526533   10.70930144084821   -3.53885711923287
H        10.96049992802543   12.20959489965862   -2.61162146742091
C        10.33830624153456    9.13680040543989   -1.44172910397494
H        11.00715178468913    8.51220950968216   -0.84424668583557
H        10.28876844384220    8.72143275300003   -2.45675106254056
C         8.92719489872151   11.50766313615360   -2.56992429791265
H         8.63797732293932   12.09980719795106   -3.45266513629882
H         8.40405609900583   10.54950429029271   -2.60690241394629
C        12.25405477123181   10.56472601354940   -1.11682415717354
H        12.61089434954567   11.59057119016495   -1.23687738468061
H        12.85809785303662    9.89306553642061   -1.74127322587886
H        10.02868411051623   11.41279449467161    2.62341805723740
H         7.59389815844048   11.95268903406359   -1.10766670305358

