64
CSD_code = LASKOF | q = 0 | S = 0 | Stoichiometry = C26H28N4O5W | MND = 6
W         5.29460417277566    2.31656782978907    2.18647379113126
C         3.92837487375199    2.60112973185280    3.61246515772763
O         3.12476200542245    2.67339923068434    4.42697595730373
C         5.81165128498098    0.59436306601297    3.07285928004435
O         5.93603243268656   -0.50727372760779    3.35024732387761
C         6.69987129058926    1.95323428759160    0.81728292849590
O         7.51192789253232    1.71274663455972    0.04714153293429
C         4.61632190704038    3.81313896516045    1.05845694745259
O         4.14235599346913    4.52195699549284    0.29043517306007
C         3.98275547294631    1.20302559944675    1.19405182812330
O         3.22192887525574    0.57908596936390    0.60615545138734
C         6.82437024241208    3.56950180309827    3.17051182772240
C         8.12737516563071    2.94592683492599    3.37552659741982
C         8.41814373239476    1.96402443368832    4.25906681882428
C         7.44477747977061    1.51962689633269    5.25035320297953
C         7.45573598656349    0.20539427699242    5.72712193651313
C         6.47370235039613   -0.26510179623549    6.56634628774737
C         5.42374653308785    0.56380375968297    6.99236564325028
C         5.45885530973360    1.90409624380364    6.58021312399352
C         6.43861179950078    2.36284325396030    5.72921745098797
N         4.41873735897134    0.10832893664882    7.80181442884850
C         4.46026533353762   -1.21629890554760    8.36643680616643
C         3.16732891497584    0.82502887116440    7.87722204669372
C         9.74302126723770    1.33586881726554    4.24700645934590
C        10.37121999964695    1.00136512751174    3.04904482771198
C        11.61402243227958    0.40814222045776    3.02970263744403
C        12.30322348150784    0.12454193369043    4.21869749325534
C        11.67338739562210    0.47720743569360    5.42196713217871
C        10.42459120987390    1.05843746203991    5.43056940195889
N        13.52852411879203   -0.49504306008910    4.20493790435816
C        14.27019557632579   -0.65622314198733    5.43052049585964
C        14.21636121234001   -0.70469185992188    2.95501701169154
N         6.80962782976509    4.86695289197184    3.32749383540253
C         5.63331286257131    5.69656742408248    3.18452439456639
N         7.90060978148839    5.60888570650697    3.84581182578421
C         8.55743897060361    6.43278178076874    2.84471622530295
H         8.92320912614009    3.29969760033669    2.72234755734441
H         8.22280636624219   -0.47380243840028    5.38422408823407
H         6.50530449918161   -1.30077127719175    6.86357926220944
H         4.71880928295161    2.59990231734211    6.94120468062825
H         6.45161324445520    3.41339800385371    5.47904229738018
H         4.22214577071710   -1.99289708360811    7.62852385875115
H         5.44919409338298   -1.41746980253225    8.77998290678534
H         3.73913249624874   -1.27869923408511    9.17997975427253
H         2.91630965497182    1.26726639104014    6.91134693712264
H         2.36984928822919    0.13570575184725    8.14903926737779
H         3.20569567372474    1.62143160079422    8.62911543253672
H         9.86087717677737    1.18449424647377    2.11382964843783
H        12.04497993764028    0.15805507338843    2.07433749874127
H        12.15871434013754    0.29746734588179    6.36720297320136
H         9.96953346526685    1.32014838329289    6.37577224503299
H        13.70303591928546   -1.25741588189219    6.14542389230073
H        15.20267353634963   -1.17628210070669    5.22408527394383
H        14.50962326264785    0.30722151796719    5.89657215204326
H        13.63298499264227   -1.35722450191438    2.30030581607205
H        14.40732416750524    0.23790387238126    2.42856131355481
H        15.17147818688080   -1.18920879536643    3.14344647705989
H         4.74122460116255    5.11778991785605    3.42387174555662
H         5.72520433668831    6.53185063007181    3.87846262418763
H         5.54355889332679    6.08411280841038    2.16806555056140
H         8.56048202474890    4.94288813146773    4.24919226578284
H         9.40114774180460    6.92746290608696    3.32036770097524
H         8.91794638858359    5.86327940257129    1.97983837919720
H         7.85986898583722    7.19315328577491    2.49642721321464

