46
CSD_code = LASLEW | q = 0 | S = 0 | Stoichiometry = C24H18O3W | MND = 9
W         5.16545304582602  -10.01852935111833   -5.19757967106497
O         7.33619951215199   -8.56851417196664   -3.49578932089972
O         2.30962901924540  -10.13136484339801   -3.96446108103836
O         4.29586253387790   -7.03251683138586   -5.15572236398343
C         6.52486269557382   -9.12095568768630   -4.09559749820316
C         3.48074402146416  -10.12601993963254   -4.12400285246508
C         4.61670582836232   -8.13623150424124   -5.19641121528393
C         4.33891200185610  -11.66795154702941   -6.59221568651697
C         4.80909921940270  -10.62892612032500   -7.41825278738240
C         6.21446784664151  -10.49595770065257   -7.20419128601319
C         6.59978072929043  -11.50731296766471   -6.27824140029964
C         5.44598491933924  -12.20963618656369   -5.87238080942862
C         5.38799535478634  -13.41455088811332   -4.96239588073949
C         6.71244945307013  -13.59908031544685   -4.21321796196093
C         5.15322653151293  -14.63843274443665   -5.86082331301502
C         4.22415234023289  -13.24970628910604   -3.92497552400463
C         4.51220264823747  -12.15676187571552   -2.91710330491062
C         4.49651435495091  -10.76631941631375   -3.07264782658338
C         4.77146481334629   -9.97798790091611   -1.93587891625782
C         5.09452395923867  -10.55149185720773   -0.71983139144866
C         5.08370211525494  -11.93007582748856   -0.56493902923118
C         4.76320361073099  -12.72222136157861   -1.65568896072751
C         4.50989070792894  -14.15145315853595   -1.72971950863645
C         4.53080443643816  -15.11827262714289   -0.73863602248803
C         4.10816492634081  -16.39891625017382   -1.05500358637495
C         3.64583976252387  -16.69364455120177   -2.32786367909860
C         3.63239150774449  -15.72783552168811   -3.32616333074167
C         4.09437356327377  -14.46071477334802   -3.03419853983514
H         3.33801868401582  -12.07783115277706   -6.62061205043343
H         4.23324411767202  -10.10098310854221   -8.16690721352603
H         6.89058176398825   -9.91250777638911   -7.81704704020636
H         7.62163320638548  -11.74137202674915   -6.01425905864576
H         6.63043232026974  -14.41863148547250   -3.50246058166925
H         7.50995278014256  -13.84015108881467   -4.91271027047665
H         6.98595865864736  -12.69700107522522   -3.66597651977722
H         5.28677216069533  -15.56024063093346   -5.30167243165362
H         4.15442446231468  -14.62292135164193   -6.29153887119486
H         5.87336225747863  -14.62903146476508   -6.67763491969645
H         3.29251594355929  -13.05569618418883   -4.46716518405595
H         4.68729570608310   -8.90083814953467   -2.02101206862144
H         5.32533559136038   -9.91784865248706    0.12288251814199
H         5.29200618396115  -12.37706300230209    0.39494314651702
H         4.85700597923190  -14.87730424300299    0.26170635629545
H         4.11614852603339  -17.16891571806716   -0.29798585562462
H         3.28449176751327  -17.68742531439344   -2.54726193265027
H         3.24221843200542  -15.97295536463322   -4.30205527408836

