86
CSD_code = LASMIC | q = 0 | S = 0 | Stoichiometry = C40H39N2NiO3P | MND = 4
Ni        4.62722723961368    2.63960026251950   20.23380938524076
P         5.74414058448365    1.54703254919837   21.72698584922493
O         6.18435957081311    2.52420360499120   19.02642015747051
O         7.84829663662968    3.35507270149048   17.77218186623681
O        -1.19333703994618    6.06990473423850   20.54755771811151
N         3.87106649681063    4.17775804048311   19.22865009278991
N         7.04828146808635    6.38586351935007   16.51614029320733
C         6.62109094486621    3.44760417758894   18.31678279784867
C         5.92107328631789    4.63725715863306   17.99451728874449
C         4.61208785787482    4.89819937133555   18.42902061489673
H         4.16851456040924    5.81067010504834   18.02101855637096
C         6.54972501284819    5.58600619398183   17.17398519478079
C         8.60617624272397    2.18634884049972   18.05213573313583
H         8.42628642660433    1.86962935829982   19.08653778282494
H         8.27694086984264    1.38208221756318   17.38118641264683
C        10.07290627847110    2.50644671616173   17.83104625543988
H        10.22601071712523    2.85619281399237   16.81394899648216
H        10.67232798904694    1.61649690820673   18.00125516932748
H        10.38905958528800    3.28763009834781   18.51723050207621
C         2.57341312829878    4.67396653045331   19.48619365337064
C         1.45843630797507    3.89255288113270   19.21055793600465
H         1.59284384757285    2.93134226310194   18.73930259385958
C         0.18809450798355    4.32412190382402   19.53917121141485
H        -0.65074312394016    3.68243888715122   19.32207591104146
C         0.00884978436687    5.56269590821710   20.14401414766801
C         1.11980870882612    6.37415568733721   20.36892757799858
H         0.96596889101210    7.34321576123395   20.81727185627237
C         2.38477733273172    5.93908748046817   20.03873305701290
H         3.24051407968680    6.56763375369777   20.23999008428422
C        -2.33510153286049    5.26226148986815   20.40832279919654
H        -2.55589745019474    5.05262383378292   19.35626741856276
H        -3.15623370484985    5.83392914611408   20.83861427939535
H        -2.22559524097991    4.31748741729686   20.95121050163997
C         3.09486153874785    2.46412219331581   21.28662329322178
C         2.27721269311783    1.40033361266307   20.90212133520663
C         1.04504331205522    1.22589021819258   21.51427951109799
H         0.41021299692343    0.40759188772780   21.20070813460527
C         0.61443191022532    2.09023522915727   22.51078028714907
C         1.45202773340931    3.12238778647809   22.90220814723524
H         1.13504122904487    3.80161928757175   23.68157821609417
C         2.69473770352357    3.31455856493578   22.31179221053902
C         2.74258112399030    0.46078939595300   19.81687639988195
H         3.56621187776086    0.92646642920731   19.24814012581356
H         1.93294122784631    0.22412737662801   19.12863990241158
H         3.10516562781135   -0.47420369605862   20.24816742884684
C        -0.72150258753574    1.89938949051018   23.16722769607664
H        -1.13847696309191    2.85516191164641   23.47696529101726
H        -0.61930083113597    1.27478486824896   24.05561454574670
H        -1.42023420366397    1.41006228543713   22.49202631938899
C         3.57705059659610    4.43615773351584   22.77829570058109
H         3.93154719193025    4.24455555517607   23.79121202179269
H         3.03307636937548    5.37828501253567   22.77607883695330
H         4.44079644209219    4.52398238463815   22.11381169808748
C         7.42704044360746    2.25473307641157   21.74028999608562
C         7.54692717636488    3.61999588664166   21.49482395669514
H         6.64926784863660    4.20850770585966   21.33288614737765
C         8.79235498614924    4.21494508627306   21.42959507710335
H         8.87702727765508    5.27193958828271   21.22430665785308
C         9.93156312913882    3.44650730056764   21.61183132124457
H        10.90743700004158    3.90523250353452   21.55182036782640
C         9.81931017980252    2.08892128961910   21.86365687649148
H        10.70776336207353    1.49037138259175   22.00287168868115
C         8.57252181320752    1.49009970744381   21.92690353457389
H         8.48986801270330    0.42805695522265   22.11074095943680
C         6.08041102077792   -0.21682649365205   21.41095569001537
C         6.22015413462805   -0.60762705453157   20.08202880650434
H         6.10105851678381    0.13098698007009   19.30164748701644
C         6.50957724791022   -1.92188052088094   19.76662662036421
H         6.61743008420279   -2.21929284398540   18.73375340559787
C         6.65576901305478   -2.85893667175399   20.77706135926611
H         6.87753732430604   -3.88748089036663   20.53359022124792
C         6.51560409771502   -2.47580845404164   22.10091740514085
H         6.63088156893261   -3.20539963378864   22.88931252618065
C         6.23065420593009   -1.15995893923676   22.42193202498529
H         6.12494981690902   -0.86689541702655   23.45666159351262
C         5.29002360449536    1.55165008365911   23.49031696014008
C         6.02642599175427    2.23375166965478   24.45064234813061
H         6.93046953648455    2.75551612244600   24.16961785081693
C         5.60197576903651    2.24915761687667   25.76853936840281
H         6.17970272740291    2.78032874599727   26.51096734209550
C         4.43942900484721    1.59243606675129   26.13399809007970
H         4.10842495306037    1.61212074836068   27.16175153361469
C         3.69980115129963    0.91239731705178   25.17866446407481
H         2.79085522226221    0.40178065210577   25.45976765850801
C         4.12048552808995    0.89314487866275   23.86349911140449
H         3.54310299817544    0.37201571263098   23.11321075255438

