151
CSD_code = LASMUO | q = 0 | S = 0 | Stoichiometry = C71H73N3NiOP2 | MND = 4
Ni        1.58778963788177    6.24661220901738    3.87807847935643
P         0.51074089405836    8.08360030585612    4.34244037865331
P         2.62957035998125    4.32455221505892    3.72723481764833
O         3.80134424007298   10.30538059389326    2.54844618200747
N         3.14530703096848    7.25056454336747    3.61787520067022
N         5.84170751738462   11.08507946707587    3.16231934367488
N         6.00095284902357    7.38258041612928    5.44396847202101
C         4.96575014893019   10.16450424764048    3.24659515509253
C         4.99678277173777    8.92834967450983    3.98932662644202
C         6.03210207355847    8.53402787970803    4.88463519190707
H         6.85370457503293    9.23915695889163    5.02562991989310
C         3.97292792906753    8.05287150548664    3.80138841170948
C         3.71519166139246   11.40655384877750    1.66202609172041
H         2.97901722743304   11.10664169046871    0.91018848513244
H         4.69120018450655   11.56146095050867    1.18836518412149
C         3.27395982348696   12.69076357677429    2.35148436421275
H         2.28861682027646   12.56438668513591    2.79344584164951
H         3.23356815882660   13.49817442054369    1.62502506860310
H         3.98619559287928   12.94904060682348    3.12907526891496
C         7.13150472375876   11.09738727527295    3.64736101483320
C         7.44372911758896   11.95944112731231    4.71459378031054
C         8.75820530185891   12.06867103323405    5.13132061917453
H         9.01010267402217   12.72672491230430    5.94955359074666
C         9.76227678747442   11.34350623103735    4.51459460942088
H        10.78338690769258   11.43147604714433    4.85657701961019
C         9.45379054925419   10.51312268678685    3.45393927357114
H        10.24500118487638    9.95638981455866    2.97264783380606
C         8.15216349706916   10.37859255568622    2.99908703034053
C         6.33605227156583   12.77292015158767    5.34569679192204
H         5.39309821204677   12.24656784680497    5.15784276941230
C         6.48513202422793   12.94526218628794    6.85631321809588
H         6.61779954727093   11.98110391943176    7.34190633903608
H         5.59341186415445   13.42027264780432    7.26344932243515
H         7.33640122570494   13.57651055876779    7.09947224941063
C         6.27302381523665   14.14031596806810    4.65741132574445
H         7.19526493292146   14.69063486201046    4.83352068436551
H         5.43962787161369   14.72806925241250    5.04006984398924
H         6.15133316602021   14.01287684388384    3.58425639605701
C         7.84858805071426    9.47604205962952    1.82395290475451
H         6.77558673254617    9.52833495203628    1.61274481797810
C         8.59359210475886    9.95125603904608    0.57371560719083
H         8.34689456862146   10.98925369784656    0.35976218824877
H         8.31542303279195    9.34354085906278   -0.28584240148983
H         9.66959175374148    9.87700653456409    0.71130404683628
C         8.19241602439875    8.01802107225486    2.13846686386042
H         9.25485081338631    7.90591725531358    2.34247483850668
H         7.93416608377283    7.37910965418916    1.29518979114669
H         7.63723653479450    7.67417222076991    3.00848325822508
C         6.89780018318608    6.90602576840321    6.36809233238410
C         7.23561881783186    7.58914564932228    7.54996453907092
C         8.01051480044024    6.94465891477563    8.50251677610234
H         8.26223822534437    7.47103330601189    9.41378377876539
C         8.46984968849635    5.65553988746626    8.30761610546662
H         9.07426815262590    5.17378909869875    9.06253482623624
C         8.15212144201589    4.99080760114430    7.13555881816221
H         8.51259443089042    3.98464677207524    6.96969155368812
C         7.37085423223214    5.59480241689171    6.16872485233112
C         6.77401604867032    8.99452788199107    7.81164818004361
H         6.61865276904607    9.15226878814402    8.87876185273680
H         5.84845127467125    9.21001456138841    7.28036465799380
H         7.53011141126606    9.70562788154374    7.47344732335164
C         7.05400696590976    4.88712598527226    4.88566104586524
H         7.83350006293424    5.07585511159717    4.14572676472763
H         6.11520858468800    5.25878623824775    4.48080468099329
H         6.98379038322416    3.81222899556833    5.04155452079475
C        -0.02472684476589    5.26837534185587    4.00681416462508
C        -0.58804576917715    4.85757029075056    5.21234720405497
C        -1.78417224361346    4.15065414354029    5.20362755963522
H        -2.21367519946642    3.84047330087362    6.14684054310469
C        -2.42494513162884    3.83124600398342    4.01823597890929
C        -1.84966176555635    4.23884021923618    2.82270617601025
H        -2.33158974310617    3.99312461247040    1.88585329396796
C        -0.66360574306861    4.95611825385435    2.80461941623657
C         0.09342988667757    5.16536245278867    6.51608790980502
H         0.20698367202061    4.26727250383504    7.12244506399086
H        -0.48734047638339    5.88810143123057    7.08998703595850
H         1.08785460548719    5.57965356749448    6.32284316475570
C        -3.69871323996226    3.03957343466736    4.01420393784421
H        -4.41803422778682    3.46872418761210    3.31887177928867
H        -4.14282020038426    3.01187871159554    5.00634639896787
H        -3.50081090746186    2.01489594569850    3.69778741889359
C        -0.06363885346096    5.40389139724749    1.49902296268368
H        -0.62699745350064    6.23992752481809    1.08170870625449
H        -0.06636397250549    4.59295442246705    0.77264526901446
H         0.97398458853922    5.73213257842002    1.66095166607927
C        -1.09643116647982    8.09728264527071    5.20146842047742
C        -1.25013289041983    8.55217167200117    6.50522506958562
H        -0.40405457386459    8.96478734385282    7.03704177800133
C        -2.48690923695182    8.47887440396566    7.12321004555929
H        -2.60112701541176    8.83663418914711    8.13633748533426
C        -3.57247265318369    7.94502519672848    6.45000291409265
H        -4.53353267011806    7.88303090108521    6.93870078004038
C        -3.42396863128029    7.49040233776806    5.14888330209908
H        -4.26801027322004    7.07182709171642    4.62127868273505
C        -2.19313720986962    7.56491890125373    4.52788499967213
H        -2.07071459958578    7.20712433353529    3.51526363250655
C         0.14611742751459    9.09453937834475    2.87474831281461
C         0.89651959988170    8.88889335371629    1.72328788377762
H         1.66814279147103    8.13036722754463    1.72344324617945
C         0.66884370755131    9.65492821200162    0.59466662661100
H         1.24899200018068    9.48356982606005   -0.30068814180569
C        -0.30608657180405   10.63855833679144    0.61161311288075
H        -0.48420533552085   11.24046917139197   -0.26740250616890
C        -1.05484560431439   10.85119508850915    1.75847770907785
H        -1.81349847795634   11.62027658381925    1.77316010295089
C        -0.83476321680118   10.08234828318700    2.88674377876448
H        -1.42302361722840   10.24765037494460    3.77906595589393
C         1.53762266839978    9.19229788280595    5.36297011423532
C         1.74768964556410   10.52967450724964    5.05703915075592
H         1.25740881081382   10.97058566685903    4.20219869503268
C         2.59704791626600   11.29237223459740    5.83981783844401
H         2.76253098775456   12.33083508212161    5.59238004557636
C         3.23795940826238   10.73024151298389    6.93044160782428
H         3.90749776989732   11.32717130356980    7.53131044479661
C         3.02605547596447    9.39709694498694    7.24474342107167
H         3.52137610172826    8.95183837053685    8.09511193590684
C         2.18725686762883    8.63117452090544    6.45980152798047
H         2.03617798434925    7.58417263532997    6.69010075279313
C         4.05793213574717    4.23704873327281    2.58835403119349
C         4.23192332858746    5.20689022352554    1.60949394172653
H         3.51965342606978    6.01630504268015    1.52514494956047
C         5.32047885783179    5.15348952967820    0.75728180563777
H         5.45335761163093    5.91878246477792    0.00658969294211
C         6.23864897606645    4.12449046891302    0.87158889761862
H         7.09351993557831    4.08477226773557    0.21270564958220
C         6.06062721418733    3.14382536733142    1.83467880001654
H         6.77427911265481    2.33778780082684    1.92260866782326
C         4.97691298316505    3.19731002972994    2.69029332189589
H         4.84773045822440    2.43606733282863    3.44562669889770
C         3.41191158844170    3.89305666307138    5.31440405215153
C         3.86360505510468    4.94950947905809    6.10080918088030
H         3.73252362406078    5.96883815004306    5.75887913518714
C         4.51363770750063    4.70463993591089    7.29588223950973
H         4.86901073046898    5.52923010396517    7.89387813815584
C         4.72343830013386    3.40086251038701    7.71199856936081
H         5.23985631502894    3.20688612441052    8.64019894671149
C         4.27533148865046    2.34537878175949    6.93439866616225
H         4.43949837060976    1.32727679319194    7.25785050707089
C         3.61896145966084    2.58493405873034    5.74003140131378
H         3.26465001431921    1.75389273550343    5.14532536300602
C         1.70249268141025    2.83179628963685    3.25125213491408
C         1.71118622184293    2.38700542730468    1.93390815989305
H         2.34971546300099    2.87235272072015    1.20845828040380
C         0.90812897557417    1.32781544923088    1.55099940486058
H         0.92233778447931    0.98610903698416    0.52603068503314
C         0.08286113273710    0.71069025205015    2.47554012194799
H        -0.54819968847381   -0.11186109817939    2.17265705627255
C         0.06687077308272    1.15185597002987    3.78889019191646
H        -0.57738967768149    0.67455644861536    4.51257675562008
C         0.86816744237604    2.20839173084365    4.17488597815043
H         0.84822545263130    2.55962041538202    5.19583748085005

