86
CSD_code = LASMOK | q = 0 | S = 0 | Stoichiometry = C40H34Br2N4O5Zn | MND = 5
Br        6.59795546661016    6.11333914926309   10.03631470617969
Br       -1.33445725186185    2.55797766738856    3.96043794771968
Zn        2.58905448482891    4.39353254267750    7.00311636011379
O         0.82417698749409   -0.14278806719914   13.51615224085558
O        -2.52208265132755    3.19081083183528   12.94647283395601
O         4.49559839289911    8.59728389883843    0.41770709041004
O         7.93671514336369    5.38324695434648    1.09702634486402
O         1.54841403015091    6.34369760288424    7.25695826475450
N         4.41821796026171    5.23583789141382    6.64237733288531
N         3.09630788019470    4.20499185404505    8.97388590237022
N         0.91308201837016    3.29905609677945    7.33750598141503
N         2.24435047247389    4.31596888921585    5.00230935723543
C         4.88824658240928    5.64864223620893    5.43533633919912
C         6.13205628493569    6.34880178685309    5.60581861070513
H         6.70716019472555    6.78823024698134    4.81551556765026
C         6.40499417556820    6.34113607450365    6.93075824806670
H         7.25311210087245    6.76867180529917    7.42887224162347
C         5.32589153356232    5.63970355438023    7.56951180232439
C         5.20619854569825    5.41138553281655    8.93553116975583
C         4.18017946951684    4.74160611342858    9.59301660346232
C         4.09348416695145    4.53016759364281   11.01111955761889
H         4.81398917785833    4.85499480612877   11.73608026298558
C         2.94113302779841    3.85666972118805   11.23258061193660
H         2.53297215715431    3.53693885073802   12.17074682400924
C         2.32560821536913    3.65494141271759    9.94959080206240
C         1.09404459039378    3.02733885158841    9.76846052995783
C         0.45196347697068    2.87094314438125    8.54197983003272
C        -0.80531169851714    2.19431040126246    8.37474820484292
H        -1.37606782378313    1.74807071695515    9.16456220792541
C        -1.09455048806553    2.23194644135331    7.05412663307572
H        -1.95366054602331    1.82417410536122    6.55826910070871
C        -0.00972322336798    2.92376398178574    6.41407684967440
C         0.10434945666263    3.16506859964933    5.04988653851167
C         1.15235695505603    3.79278933859209    4.38658760025375
C         1.25188047755124    3.97761764367378    2.96541289735522
H         0.53087874573526    3.65112694666304    2.24165048283781
C         2.42131036023027    4.61869490700871    2.73884182258610
H         2.84523823099098    4.90685909043432    1.79737970648473
C         3.03126942799150    4.83360323507365    4.02259930628667
C         4.25863941683926    5.46945153068886    4.20457803265879
C         0.42117203500510    2.49022945601101   10.97383147058444
C         0.98986603299986    1.41120105570426   11.64835602706446
H         1.90290334807855    0.98484678518744   11.26583914774668
C         0.36729985208166    0.90675516787770   12.77963188474722
C        -0.81674180531691    1.48383451760555   13.24446032844937
H        -1.25912870254920    1.05872176411441   14.12956611817164
C        -1.37771492185166    2.55790191582020   12.57414763256786
C        -0.75385832493525    3.05837185050075   11.42862202792990
H        -1.19957400974432    3.89664337849228   10.91772161086289
C         2.01334495160103   -0.77862910737635   13.11305121425900
H         1.91724780891543   -1.21391574942822   12.11337699140856
H         2.18161010430973   -1.57386889436225   13.83744864273650
H         2.86346395919490   -0.08917512197938   13.12867573027340
C        -3.19372905504644    2.73993364348351   14.09832685406056
H        -3.52544592215304    1.70262409046197   13.98953762162505
H        -4.06294061223568    3.38700812296472   14.20450835423617
H        -2.56476076322085    2.82856034218316   14.98970040373267
C         4.93372993600600    6.00898213339061    3.00200520867513
C         4.34476306564778    7.06254952105111    2.30343598792191
H         3.41087441051488    7.46560535060891    2.66147441258976
C         4.97188104985242    7.57167790778322    1.17697992440141
C         6.18308709738127    7.02878733193582    0.74275288977446
H         6.62870375014491    7.45709004129350   -0.13920009390600
C         6.76499015753221    5.98115203698896    1.43715511951892
C         6.13454191759895    5.47394688967863    2.57620725467434
H         6.59402806797064    4.65406848419553    3.10384026471064
C         3.27150038786773    9.18877721028415    0.77922704791225
H         2.45168239049161    8.46363116722174    0.75697235884484
H         3.08772978379192    9.96239971052985    0.03538477380777
H         3.32396500068510    9.64705038258477    1.77225269887173
C         8.61622452838314    5.83842916032521   -0.04834281593414
H         8.00798648702894    5.71733959274505   -0.95015491818739
H         9.50698044828245    5.21739697580166   -0.12807999961651
H         8.91343651425892    6.88714488869896    0.05137026992664
C         1.98776754166492    7.49732678861358    6.56259915690838
H         1.10931477871838    8.05595021648456    6.20743000377051
H         2.58345647384293    7.17871346897440    5.70967324358466
C         2.77285584585841    8.32568321839273    7.59013250749126
H         2.62486479003478    9.39228247133358    7.43451884616718
H         3.83768564936227    8.11190211646597    7.51626589904245
C         2.20762831695803    7.84576178320421    8.93869840179910
H         2.98241181892232    7.36746881389185    9.53527707203257
H         1.77547745390323    8.65591743591609    9.52182086561469
C         1.14299331729449    6.81952661564385    8.52838205972963
H         1.06454758385587    5.97167543452939    9.20560353352424
H         0.15930153645980    7.30161565333372    8.43271321852221

