92
CSD_code = LASMEY | q = 0 | S = 0 | Stoichiometry = C42H44NNiO3P | MND = 4
Ni       15.19730453335423    9.14214033513320    0.38176522128561
P        14.76213769495053    7.42911397551889    1.62965275758811
O        13.38410690760337    9.09816219959341   -0.30113286389525
O        11.46321222893683   11.70503744379511   -2.92811856746374
O        13.42483260996809   12.74370449618983   -3.25491994122465
N        15.66827694347720   10.50099138791367   -0.94925941288105
C        14.80393240773661   11.10094863875940   -1.71315294321176
H        15.20033432151139   11.84005894518783   -2.40997927964268
C        13.40496959043540   10.90906713634642   -1.79432254592759
C        12.76988531830536    9.85847758503271   -1.08580520151609
C        11.30043680264333    9.58189695361435   -1.25582707941265
H        11.02702099788340    8.72169968530217   -0.64594942860138
H        11.07306498216651    9.38392546604553   -2.30001318168641
H        10.71615452167941   10.45100806022374   -0.96351485216798
C        12.64998508184339   11.78128247629922   -2.68449375344411
C        12.76575964463976   13.64783302378741   -4.13182678519828
H        13.55266043024241   14.03390086928771   -4.78460401570525
H        12.02677553632661   13.09693406329817   -4.72410620657193
C        12.08388109594346   14.77715861541074   -3.37088974550781
H        11.29471379545773   14.37145353036854   -2.74284479079664
H        11.64887636958063   15.48181525326454   -4.07421112992592
H        12.80456320004821   15.29652595950205   -2.74324913404736
C        17.03162154633866   10.79792580720553   -1.22715522917806
C        17.68903696118444   11.86760079494590   -0.61935005171125
C        19.03770358140081   12.06082826974495   -0.88759390681629
H        19.55347726450509   12.87764494695653   -0.40347760909264
C        19.71622112800834   11.23930327859065   -1.76568255845334
H        20.76622705862572   11.40102917133943   -1.96006127092491
C        19.03954413376241   10.22180299917658   -2.41417918868547
H        19.55754719685719    9.59756805611844   -3.12893959033174
C        17.69662105239734    9.99490206891014   -2.16196747686196
C        16.97268155182417   12.82783550481734    0.28127785592768
H        17.50052438166695   12.92057520811530    1.22814360143875
H        15.95589071529777   12.50057735119091    0.47241965476363
H        16.93725938808248   13.81300467123973   -0.18497978309259
C        16.94294492887975    8.92001551061155   -2.88686823851088
H        16.25165408426798    8.42025628818143   -2.20469963942455
H        17.62093763297260    8.18529356187467   -3.31436115433321
H        16.35094515005003    9.35479989142884   -3.69372750742897
C        16.81831011616087    9.35700849212289    1.31024540771848
C        16.74448459895861   10.30106644549425    2.33901665680170
C        17.89024260968000   10.65477716738284    3.03640547482090
H        17.82127210273990   11.39213205496150    3.82592280790948
C        19.11586137898174   10.07494171433765    2.74234163497344
C        19.16322856201219    9.09696311911269    1.76319060873733
H        20.10160732917226    8.60684436289699    1.54207347565194
C        18.02814387901146    8.71502164910959    1.05822910617944
C        15.41370176261102   10.89862294849145    2.72536434838562
H        15.03201381439916   10.41302336615479    3.62606038112287
H        14.67895431798061   10.75046402920304    1.91952001635181
H        15.50219913457163   11.96386838335003    2.92988499119886
C        20.35763966630806   10.49916917568940    3.46937717243721
H        20.80325989318713   11.36131212632328    2.97188152481338
H        21.09415053129426    9.69919135913316    3.47885863252887
H        20.13090232393143   10.78353031894786    4.49494225327281
C        18.13119667408715    7.59529049997530    0.06348048535096
H        18.75125725728732    7.88866594674314   -0.78088893027134
H        17.13609291050709    7.33013503587243   -0.30102647798437
H        18.57783819468661    6.71750542777268    0.52959157211098
C        13.65340908230234    7.74596338629495    3.04551642528403
C        12.60272383447498    8.63499485523525    2.83472664709055
H        12.50290506699397    9.11155279311980    1.86997042049582
C        11.69650945780244    8.90190101048454    3.84319056739426
H        10.88443849295581    9.59309988091813    3.67089546428701
C        11.83270375904903    8.28443819290897    5.07627809496175
H        11.12846111448890    8.49340647940676    5.86805529940076
C        12.87390818475969    7.39711985230000    5.29146181161444
H        12.97971492256557    6.91072638866653    6.25046485771296
C        13.78167740735230    7.12409685961806    4.28244109039254
H        14.58741881061973    6.42645455117864    4.45990120843684
C        13.77781049736119    6.21241197325923    0.69067356334406
C        12.86220587545120    5.36174234957280    1.29936964480030
H        12.70908995217338    5.40807181657631    2.36848292098471
C        12.14400536457983    4.46048992278575    0.53383779288606
H        11.43029395689075    3.80302445577410    1.00887214780419
C        12.33270341882416    4.40179669429306   -0.83769800745950
H        11.76426708107730    3.70056434730999   -1.43077933723315
C        13.24546980839002    5.24626042962467   -1.44842809434088
H        13.39039846836615    5.20508696096353   -2.51813975675412
C        13.96436680397312    6.14716806099131   -0.68541558648259
H        14.66905155739865    6.82517062491825   -1.15364264609891
C        16.06127111809331    6.38936515960285    2.37315371806216
C        16.86223817673150    6.94567901968214    3.36830713642451
H        16.67089969419118    7.95525429924603    3.70239602213442
C        17.89759868052763    6.21652632285107    3.91963910164875
H        18.51439147823245    6.65736973940977    4.68862785016036
C        18.14858953874025    4.92590920571270    3.48047624132321
H        18.96080467998349    4.35669875183559    3.90811550889387
C        17.35841947094451    4.36880826562602    2.48973887820084
H        17.55302535203041    3.36400802009123    2.14361877435692
C        16.32077318637637    5.09731716482568    1.93353830386036
H        15.71407587793452    4.65948906141075    1.15338776689438

