31
CSD_code = LASNEY | q = 0 | S = 0 | Stoichiometry = C13H14CrO3 | MND = 9
Cr        2.41420299568244    2.46231808543936   11.10501294545171
C         2.91230784191777    1.64523451916675   13.01553830392715
C         3.51944326623974    2.90208927977337   12.90882252874058
C         4.40946822924563    2.44060270957076   11.84412396273572
C         3.92419433911672    1.04659038028295   12.11326960352600
C         4.83938234260956    3.10777436261051   10.73658847331657
C         4.30822738922577   -0.21787350730976   11.88316413116562
C         5.03361441810738    4.59862668868930   10.78011629653199
C         5.46147502359598    2.43316581985879    9.54618328664915
C         5.57118325953217   -0.59400818458471   11.16799875309396
C         3.52544346732915   -1.36924152852539   12.44323917422052
C         2.18804305555372    2.19329375687761    9.30536137472710
C         1.65321445733299    4.10342385684029   10.88827187685985
C         0.65150752645626    2.01204282391258   11.18207181180863
O         1.97721215623258    2.04338652424521    8.17980068232892
O         1.08901264482367    5.10463725818657   10.76293814269308
O        -0.48482615186667    1.79810942244839   11.19890579198597
H         2.32854751001853    1.19689094811899   13.80822326307857
H         3.51772344127702    3.77463062962263   13.54479423279498
H         4.63044345451561    5.05640108601914    9.87861500976481
H         6.09921513956922    4.83590765409553   10.82299186580517
H         4.54433708249936    5.04626107091789   11.64157490282973
H         5.08566217621330    1.42235612997537    9.40977616711004
H         6.54925996177773    2.39520412947880    9.64854634634980
H         5.23922890595448    3.00462471188513    8.64682638406136
H         6.24884926752202    0.25058726597220   11.07857897678962
H         5.35110285288820   -0.97922822159845   10.17135930889736
H         6.07598904320801   -1.38836494862097   11.71758209067790
H         3.41998547274147   -2.14578548534478   11.68708657362663
H         2.53418632741563   -1.06209251792612   12.76636565655827
H         4.05226310326478   -1.80656472007735   13.29337208189322

