69
CSD_code = LASNAX | q = 0 | S = 0 | Stoichiometry = C22H30N4NiO10S2 | MND = 6
Ni        4.68450010313813    3.86907363677028    7.64866377656847
O         2.78428771508202    4.02248789626389    7.67934149272305
C         1.99824236140593    3.15665955445367    7.17637546541588
C         2.31017125912955    2.44247707911309    5.97235142189964
N         4.57869732272257    3.21247620004404    5.89036937002182
C         3.55409775246281    2.72947062452281    5.27581657303222
O         5.68347749988061    3.42400789660132    5.09634582146155
H         6.46481315873782    3.51106117313536    5.69400126807365
C         3.63525723675404    2.45252901783904    3.80213460594408
H         4.30918637305491    3.17105945091619    3.34079431002622
H         2.65723747877697    2.51704137016204    3.33573821986647
H         4.05105044842792    1.45974283974418    3.63340259750055
C         1.43094956957150    1.49392966059392    5.47811155392393
H         1.70028460393928    0.93313972625685    4.59545482815658
C         0.21258007270929    1.20560977588457    6.09207451860743
C        -0.70496004860846    0.16902110086175    5.51854932268924
H        -1.34698838490527   -0.24513753053196    6.29118057915694
H        -0.13838972583748   -0.63774029639528    5.05959687097686
H        -1.34139064861664    0.61297191938145    4.75235531485393
C        -0.13406024678490    1.92373778171226    7.21509775625141
H        -1.07753181516162    1.75741223450799    7.71358750558618
C         0.71895044800011    2.88826712843648    7.75080701712236
N         0.28600360017200    3.58683555817600    8.89819122962866
O         0.99470553846343    4.47835862953514    9.35578188925899
O        -0.79038470312014    3.28884237712614    9.38988231253710
O         4.97879675325884    6.08624999823559    6.96585201222515
S         4.09202803936512    7.25311763903475    6.77808217903143
C         2.81677536573202    6.70005768193314    5.57257797582346
H         3.30774697721392    6.54552711854642    4.61711860891434
H         2.05606385493699    7.46638037947874    5.48292944916597
H         2.39306357208360    5.76719621239686    5.92729259501497
C         2.96256204216524    7.26867235932917    8.22575079869621
H         2.49968436880097    6.29380236073330    8.34413650251944
H         2.21360076627173    8.03673976961317    8.07178635329982
H         3.55358869168768    7.50361984576051    9.10494990930849
O         6.58496982150655    3.71602754353012    7.61804303056763
C         7.37060282561632    4.58250559370259    8.12058950124411
C         7.05841270991200    5.29678089241354    9.32447508450597
N         4.79030980974242    4.52568247741499    9.40700761514604
C         5.81488643340046    5.00894823025935   10.02137764706796
O         3.68586717821646    4.31352900373808   10.20134318630834
H         2.90437426100608    4.22675337679437    9.60387302792267
C         5.73409468232891    5.28541164452489   11.49516551041654
H         5.06104777217157    4.56609371776316   11.95657981093751
H         6.71238632988089    5.22172605455274   11.96111271060027
H         5.31736592123051    6.27773049229247   11.66436014431471
C         7.93678809453218    6.24639990117158    9.81812797073605
H         7.66697446926916    6.80724995441071   10.70060694156081
C         9.15472423515344    6.53566289094356    9.20374701661541
C        10.07114675919962    7.57384805550101    9.77628217062478
H        10.71236306128287    7.98819501474036    9.00302969785802
H         9.50352542088032    8.38024764772351   10.23467631269928
H        10.70839877968139    7.13132028062539   10.54267300274634
C         9.50181841093346    5.81725913998961    8.08103154421086
H        10.44499457230964    5.98425103461624    7.58221064396995
C         8.64956042895924    4.85180033762495    7.54586395806293
N         9.08278165549437    4.15334594234181    6.39847668127462
O         8.37499270076042    3.26060807307586    5.94194308171936
O        10.15830445895852    4.45256036371318    5.90582460786772
O         4.39082263869203    1.65165510331624    8.33080672028101
S         5.27810264799246    0.48527182668807    8.51911285228894
C         6.55256018087038    1.03918293596087    9.72506978606395
H         6.06103024220359    1.19363566463142   10.68024499930149
H         7.31365270864511    0.27330635008370    9.81527282683320
H         6.97594565714252    1.97220503338957    9.37038885600716
C         6.40817378316884    0.47006954842098    7.07192021804528
H         6.87080350920569    1.44509550110593    6.95367451295555
H         7.15732457537214   -0.29777845558433    7.22617849955182
H         5.81749586337474    0.23492065833786    6.19252782440422

