63
CSD_code = LASPIH | q = 0 | S = 0 | Stoichiometry = C28H26N4PtS4 | MND = 4
Pt       11.64760144646997   12.01748223607626   11.08686902331319
S         9.78077958381010   10.68666393912688   11.59044952758600
S        10.21488110711910   12.27335544724992    9.24511300498724
N         7.98372546369434   10.83419673461916    9.60570873313964
C         9.16961710496557   11.20388675005042   10.07869295076789
C         7.14946127499332    9.87187643327947   10.30640573877583
H         6.11644723680436   10.22996296118031   10.27285598041129
H         7.48108328822350    9.83778915996239   11.34750032719788
C         7.25164505635671    8.50412660805299    9.67880902141357
C         6.19216672430881    7.96895406664593    8.96028964491824
H         5.26254478540471    8.51489758323128    8.88560126367270
C         6.31974703757783    6.74236597055493    8.33300047097370
H         5.49177158592862    6.34040850497975    7.76916545617489
C         7.50915721244668    6.04058643072493    8.41950601514651
H         7.61153775589838    5.08711542722901    7.92343627118878
C         8.56568263104001    6.56208772747151    9.14698174110791
H         9.49270378003498    6.01395046427792    9.22480087484569
C         8.43797678192124    7.78708365061697    9.77519507937842
H         9.26199650751834    8.19251441071729   10.34293367268646
C         7.52416165689164   11.26809792378660    8.30168128201066
H         8.09874350824908   12.15747313327751    8.02216824954488
H         6.46846157336882   11.54456023210524    8.38218976073786
C         7.69499970282800   10.20408048627765    7.24917367697355
C         6.64262512500791    9.83474106421970    6.41923168193570
H         5.67799405206795   10.32135434874067    6.49728322238982
N         6.73004759823387    8.89347029899921    5.49901993380390
C         7.88244609144416    8.26343618424689    5.35682534500733
H         7.90271464142825    7.49281301260213    4.59796422834747
C         9.00572863686661    8.55834925023811    6.11455495573715
H         9.93167231354732    8.02782981045936    5.95847923330013
C         8.90894121681838    9.54898816958315    7.07512190393181
H         9.76193662911623    9.80959246580781    7.68413022178393
S        13.51439474573772   13.34847306084548   10.58348589046057
S        13.08027312368554   11.76180055437501   12.92878775441384
N        15.31165968185021   13.20059678823627   12.56804217810420
C        14.12579432391888   12.83086117313563   12.09502653939737
C        16.14593571474088   14.16291160226861   11.86735716827718
H        17.17892720990547   13.80477346198649   11.90089377288949
H        15.81430922575269   14.19700715510936   10.82626558747909
C        16.04389709995225   15.53070267074962   12.49489030776841
C        17.10348640970712   16.06586414922035   13.21325308533816
H        18.03305707957140   15.51983508897718   13.28795806071039
C        16.97607484515242   17.29253907605386   13.84040993739560
H        17.80414604251378   17.69450263389941   14.40410383946755
C        15.78672858064401   17.99442414769783   13.75391648336327
H        15.68450526108928   18.94800763815371   14.24979982918831
C        14.73008062987498   17.47291654907007   13.02662083783479
H        13.80311492475514   18.02114451088643   12.94877485679662
C        14.85761562597772   16.24783030579871   12.39854675032702
H        14.03350574394755   15.84239931116959   11.83093158492796
C        15.77123098023342   12.76669120501057   13.87206674171864
H        15.19660898464385   11.87734669469877   14.15159619143438
H        16.82690859086860   12.49016412563704   13.79150829446813
C        15.60053830225411   13.83067119768279   14.92463683341155
C        16.65303397558650   14.19997905322009   15.75444069175913
H        17.61768534983342   13.71343351950650   15.67616201204239
N        16.56571561220772   15.14114171312051   16.67477094190446
C        15.41330663338020   15.77110200377009   16.81722338700524
H        15.39311188590151   16.54158386124127   17.57622937440243
C        14.28992668154709   15.47624213495232   16.05961778245741
H        13.36398263198392   16.00670037924632   16.21591269510282
C        14.38660784385777   14.48571226870370   15.09892716792229
H        13.53353714856537   14.22515107917845   14.49000492902456

