53
CSD_code = LASRED | q = 0 | S = 0 | Stoichiometry = C22H16CdF6N6S2 | MND = 6
Cd       -0.01785987124857   -0.04260909122422    3.05277931999653
S         0.52268524627152    2.44185333442678    3.35039960212787
F         5.59527317225659    3.11428016966272    5.73732009780660
F         3.97537159600979    4.27374161817542    6.55312112303310
F         4.77474197989981    2.61292088513501    7.65841953812818
N         1.77416844884933    0.45498939088802    4.47241131562842
N         2.56578287398668    2.63261539956705    4.97791099364250
N         1.25684971589084   -0.56451361761621    1.10243181799052
C         1.72218395730929    1.80857354463948    4.35079328516873
C         3.47305687413411    2.08447616064885    5.75482678052403
C         3.59826534718486    0.71687632309147    5.95373924546941
C         2.68550732536350   -0.08702935765554    5.26059294998978
C         2.71132437230727   -1.57387963746439    5.38554896638888
C         4.43932089239264    3.03489819582213    6.42474813913685
C         2.34807772593442   -1.31119651059638    1.15368654441815
C         2.87227140714626   -1.95715439538045    0.04431388799488
C         2.21241238370106   -1.82308734868567   -1.16701071195736
C         1.07232008244450   -1.04023487642902   -1.22467801836021
C         0.62233025030232   -0.41502801735300   -0.06209544408564
H         4.34762343145333    0.29959325938389    6.60385823126744
H         1.91553320867200   -2.02066228046028    4.78872142579786
H         3.67608914250294   -1.95952784855269    5.05875630829872
H         2.57939966772561   -1.85727338449572    6.42854129963992
H         2.82158999750545   -1.39187195731849    2.12502280724391
H         3.76527044101587   -2.55510134180882    0.12951602686658
H         2.57662009280299   -2.32276365947457   -2.05210808061823
H         0.52657030528296   -0.93868246451900   -2.14927128025849
S        -0.55255603917407   -2.51448566201961    3.42391194938849
F        -5.61622311177394   -3.11499136995982    5.87441009089179
F        -3.98681323680744   -4.26193812588050    6.68893262787173
F        -4.76156055717882   -2.57331373909048    7.76953896588717
N        -1.80675554356069   -0.49807132137160    4.48901848791679
N        -2.58528379945445   -2.66182893316000    5.06908882213067
N        -1.27691368443370    0.48578830211821    1.08600470962071
C        -1.74927955578057   -1.85471338898971    4.41048059929700
C        -3.49055444894443   -2.09295317516130    5.83315544315208
C        -3.62102472964225   -0.72013159040078    5.98869561796733
C        -2.71592808496328    0.06508982041033    5.26483333078635
C        -2.74719704852533    1.55510026563353    5.34228663823971
C        -4.44847422367000   -3.02465915191547    6.54029229656750
C        -2.37343861102134    1.22434184488211    1.14491133684025
C        -2.84666819880748    1.95971042853957    0.06885402233845
C        -2.12784917469980    1.92837098102631   -1.11555348091757
C        -0.98313218106896    1.15305716470664   -1.18273932681766
C        -0.58720504463092    0.43375348830420   -0.05561410814471
H        -4.36866633690354   -0.28561382412349    6.62944402932294
H        -1.95493642587307    1.98544256352593    4.72888542054971
H        -3.71427737129544    1.92643304054302    5.00588939397429
H        -2.61358525047751    1.87233031416430    6.37527111423131
H        -2.89503528094111    1.22249689226777    2.09475991533008
H        -3.74582999606030    2.54748459849389    0.15982221773953
H        -2.45069031594984    2.50032801065981   -1.97247466285978
H        -0.39290181543554    1.12887007444121   -2.08500162268768

