73
CSD_code = LASSIK | q = 0 | S = 0 | Stoichiometry = C18H48N3Si3Y | MND = 3
Y         5.29024551818373   10.42481404226410    6.62167007976703
Si        6.00643096756457   10.74534369075627    9.78732347917142
H         4.93281718333106    9.71605450008129    9.51209383696856
Si        7.24500520115147    7.87972326325084    6.00242958282994
H         7.03126596913685    8.14956848768838    7.47759566707895
Si        2.51568346107453    8.76048465262584    6.97934934833251
H         3.74399837430746    7.87777497542672    6.93400194614995
C         7.51252269289926    9.78962049469369   10.49073660603338
H         7.91914025915308    9.10578250943864    9.75087276587574
H         7.22221031819068    9.20153692598832   11.35572312245600
H         8.31404908852421   10.45097846297191   10.80770830787807
C         5.37379816482164   11.83940478721723   11.23147908011253
H         6.16287143874052   12.41959335014949   11.69867998014949
H         4.93162065694120   11.21669840618505   12.00280922506758
H         4.60862391576976   12.53260529653826   10.89619396417491
C         7.26996525412993   12.46244456949340    7.98154768564746
C         8.52095912665023   11.68075763910139    7.53564174681997
H         8.89251688260983   11.08379570991247    8.36345856224890
H         9.30817728946342   12.35888468669652    7.21005487673044
H         8.26589000963645   11.00267209079698    6.71533953894884
C         7.63340567019543   13.34476156924722    9.18396993188186
H         6.74809871662868   13.86129305770242    9.54254966430607
H         8.38370615980335   14.08021003167102    8.90135783706830
H         8.03032356449495   12.73733842967210    9.98976461783930
C         6.84252033332262   13.40419415921132    6.83426116982214
H         6.63700387933274   12.82808109755344    5.91753482822705
H         7.63288444722669   14.12040960673778    6.61513361342047
H         5.94734112633794   13.95552669374958    7.12435256709914
C         9.13310846349181    7.65132012892288    5.74401900300224
H         9.38399963783236    7.38256797990378    4.72201283366943
H         9.51091631110763    6.86098083948005    6.38485258491681
H         9.67856042971543    8.55766801501129    5.98924103847146
C         6.46381821365101    6.16740141730615    5.63836005186355
H         5.37969088983130    6.23588732405781    5.62002111106115
H         6.73195832179346    5.45628765740120    6.41360955630454
H         6.78589047443281    5.74855246891845    4.69010010697821
C         6.62870870606381    9.54727224674272    3.83915516121909
C         7.90870622378397   10.36039882135984    3.56424189072823
H         7.90804715577379   11.27646512979542    4.15655623047075
H         7.98097419450072   10.62439307955159    2.51099596431611
H         8.77989151280228    9.77485110803167    3.84125899468732
C         6.64625921298513    8.28001678907129    2.97268786713417
H         7.53080755893854    7.69027119612396    3.18709289609579
H         6.65108632254270    8.53987495979813    1.91606116484430
H         5.76661204870121    7.67985183969407    3.18654272726117
C         5.41338343969988   10.38939056965500    3.39438601466524
H         4.48881757752890    9.87107531556898    3.66201827278787
H         5.42885706044757   10.53512273260473    2.31461820260389
H         5.43436945899483   11.38188968983873    3.86739440753987
C         1.20811913182154    7.94619198578285    5.83584128833571
H         0.20580117361792    8.32596979160081    6.00513200235957
H         1.18068741453090    6.87460099382839    6.00699987456661
H         1.44772904622890    8.10149006153722    4.78859122426025
C         1.79611136185730    8.61745566685698    8.75208203592399
H         2.48382229465192    9.02985876172444    9.48565778776742
H         1.62190119877169    7.57846067244558    9.01359425771265
H         0.84833246479412    9.13787445574348    8.85715085628980
C         2.34092244875248   11.51863862554223    6.54486067926756
C         2.49779192674709   12.16011219059925    7.93762121016701
H         2.08078675717184   11.49952146840256    8.69266031238484
H         1.98041982863091   13.11716987835236    7.98368625202862
H         3.55811072051846   12.31216877439218    8.16500016958931
C         0.84824405520598   11.29827065961623    6.26443176750049
H         0.72263157821092   10.79812222904523    5.30900861580610
H         0.32351946447700   12.25113310824506    6.23724839634883
H         0.40649515518602   10.68202748867645    7.03976522914661
C         2.86693313478859   12.51089935200308    5.48557425506120
H         3.92362792956544   12.75222788434289    5.67695024305698
H         2.29487384178688   13.43683205243809    5.51380762608855
H         2.77017873897356   12.07387434627753    4.49213542381524
N         6.17397903733280   11.54533340138179    8.27844032938587
N         6.52770125657799    9.24920401698924    5.26471049007732
N         3.11154115554295   10.28196963844327    6.46298996040106

