86
CSD_code = LASSUW | q = 0 | S = 0 | Stoichiometry = C22H56N3OSi3Y | MND = 4
Y        11.31726066446392    4.96968299732799   17.88426555171771
Si       10.03959199926956    2.08596137961426   16.56086608364010
H        11.53958372079813    1.99905152104445   16.64478613475920
Si       10.50318288742680    4.68991202193834   21.16270144695977
H         9.61212238742528    5.70679202500811   20.49377556220074
Si       14.18112784650668    6.78044659605487   17.36414355326367
H        13.72305488873869    6.94750891138695   18.78114780781831
C         8.32360387983239    4.21149051605902   16.98165366818830
C         7.66620854104124    3.79731219634196   18.30946307516758
H         7.58187071227225    2.71669663126088   18.36169980722761
H         6.67048558337952    4.22883661393111   18.39637555778667
H         8.27566011509012    4.13644006205100   19.14602749456436
C         7.46329038648711    3.68634304843264   15.82205571975435
H         7.95448371845431    3.88485650804992   14.87374740701543
H         6.48899472843829    4.17090959724044   15.82418323992113
H         7.31389169302197    2.61662324098317   15.91803608370218
C         8.30728494769397    5.75090714596639   16.90734174326738
H         8.81873653088756    6.17202986807683   17.78104658990155
H         7.28019049970788    6.11526941544914   16.90836024209717
H         8.79037611582835    6.08758479496621   15.98875087367082
C         9.63595308665569    1.43486527720890   14.80126144121056
H         8.60610004597447    1.11207386913749   14.68995285764065
H        10.26563847766535    0.58078082062962   14.57136047486042
H         9.82740588118848    2.18968227910435   14.04506087441767
C         9.37557667263249    0.74585231629243   17.75989196361880
H         9.53336076996607    1.03902326092059   18.79397942656880
H         9.88752471900115   -0.19896207388089   17.60496976275300
H         8.31359946932339    0.55972104634748   17.62621916370402
C        12.86197467922819    3.52772351765190   20.30273417829479
C        13.46350337950989    2.90956033245224   19.02531294692105
H        12.75363036233427    2.20744898599166   18.58191019515715
H        14.37627044678531    2.36482572742636   19.26753333729702
H        13.71701536862237    3.69548639186095   18.30158385533099
C        12.55391404345820    2.36783052971726   21.26256475370181
H        12.25399003327776    2.74737942621549   22.23365270724982
H        13.43306292640842    1.74012097779414   21.39398257726120
H        11.74628568294731    1.76286334255723   20.85968383873390
C        13.92828408114195    4.43550890271487   20.94286516045221
H        14.16601699249189    5.25766561121281   20.27079772425844
H        14.83731518887692    3.87368057652239   21.14802583132601
H        13.55444946230984    4.84638312212415   21.87507802758494
C         9.34682876917983    3.27874110723443   21.76202620659614
H         9.13871633466382    2.57332625261422   20.96325416265989
H         8.39455509286408    3.67943486601491   22.09676217437115
H         9.76911835935799    2.71913910785498   22.59089419780670
C        11.09099693617174    5.53720594476324   22.78149787576105
H        11.63381504999272    4.85465180608567   23.42859458017466
H        10.24014137555744    5.90398279897368   23.34741174243516
H        11.73853619934393    6.38605015435090   22.58198052352357
C        12.95479019866251    5.57654695441936   15.18780240684375
C        11.54054626800598    5.56210931547805   14.57590659180022
H        10.89957435669616    4.85215833827164   15.10909174577455
H        11.58733578138406    5.26241457792849   13.53015172098261
H        11.10533473489993    6.56045850568472   14.62823876874358
C        13.54982587905280    4.15925885951085   15.08644381301475
H        14.55868516775568    4.15457698117265   15.49290933099529
H        13.58950377619603    3.83158871530333   14.04950723613654
H        12.93537254052027    3.45374434355454   15.65152069474525
C        13.81177207701522    6.51988450153493   14.33064789914100
H        13.45009453543345    7.53999918675463   14.41850652787210
H        13.76394410653484    6.22129780631312   13.28541272736260
H        14.84840999304916    6.48970323950523   14.64844279439025
C        14.64468793949179    8.55465895628573   16.78081878450655
H        15.35015412705012    8.54575865289135   15.95643455319532
H        15.11295125229864    9.10491758760440   17.59232284187057
H        13.77877570810447    9.12636413873662   16.45984969162112
C        15.88043741068412    5.88943123532221   17.44953893729139
H        15.79198187438548    4.88368511511255   17.84984910534771
H        16.56709086231831    6.43375454850909   18.09070256928205
H        16.34977243223469    5.81121703832253   16.47275507406511
C        10.72835897390416    8.49843012594160   17.34225925982200
H         9.75887496781374    8.45345987079715   16.83437274915572
H        11.52476404991865    8.22407652108239   16.64178366974135
C        10.98613381701225    9.86336779515271   17.97953873674660
H        10.04533146421353   10.35052373731699   18.23977101677290
H        11.55023491597757   10.52003274100491   17.32188811316252
C        11.75407500667103    9.48475085608195   19.24224425998492
H        11.69398157917990   10.23996451329476   20.02204451572184
H        12.79774436807977    9.28794783804742   19.00154191572530
C        11.05922048557270    8.18773815944914   19.63495758648697
H        11.68187306828459    7.51558851103964   20.22738803645131
H        10.12812141114918    8.39130602939619   20.18216035782254
N         9.70321734593004    3.72854990824058   16.90219559217699
N        11.66548588928577    4.30482396558900   19.97292111801631
N        12.87934390620399    5.99278936498177   16.59014278828669
O        10.73661599533467    7.52492009527075   18.40496626466638

