73
CSD_code = LASSEG | q = 0 | S = 0 | Stoichiometry = C18H48N3ScSi3 | MND = 3
Sc       13.47886948479301    5.44014069060654   10.69083218477465
C        12.31787217311574    8.21236225043081   11.39635361702120
C        12.54329214379387    7.56372881381019   12.77910608547119
H        11.76001298652839    6.82828401752423   12.98306683044697
H        12.51423531899514    8.31842631184071   13.56383370462260
H        13.53265340936354    7.08168813234457   12.79130673245814
C        13.40887206456538    9.28048808745929   11.20163415846391
H        14.38134553787225    8.79082468121655   11.14174500977870
H        13.41121870109598    9.98784359430263   12.02881178581132
H        13.23882012161871    9.82353658853892   10.27848571816213
C        10.93369858988951    8.88066586761569   11.40309516074873
H        10.77581536075586    9.42444385804524   10.47757738897106
H        10.84753216011099    9.57557191094495   12.23584631316061
H        10.15985004790478    8.12176310232040   11.49342297685918
C        12.27495307535639    9.10800754882235    7.88203840805313
H        11.69467566616408    9.91330247359956    8.32255276750040
H        11.99767272005765    9.05092735613115    6.83381748206666
H        13.32233974634179    9.38990699569333    7.92534834682966
C        10.13272492062002    7.01269533586063    8.35838258035652
H         9.86629918837797    6.03335191456286    8.74640784598539
H         9.95628266866854    6.99594674736095    7.28726440581661
H         9.44436231464094    7.73409320169189    8.78915929176587
C        15.76511704541094    4.49170065044155   12.50843707683557
C        17.09435486425172    4.82422874044050   13.20035947536408
H        17.91244648479779    4.77460652477191   12.48970446512330
H        17.28846410611765    4.11819746286649   14.00525365423361
H        17.05406426829535    5.82832933410891   13.61291646652115
C        15.87064548366114    3.10718330183201   11.84006359869217
H        14.92738070698930    2.87869065120452   11.33301153650878
H        16.08646188962980    2.33287557775459   12.57447065474562
H        16.66377636159675    3.11823538580374   11.09786494465916
C        14.67572334409673    4.41764390932336   13.59928589950196
H        14.64853643068666    5.34613354628919   14.16828018642794
H        14.87432910494467    3.59751518927093   14.28685592158212
H        13.69415381495047    4.25378757512022   13.12500084774060
C        17.53074144133960    7.67179196150114   11.31929652442891
H        16.94421970760659    8.23471650570207   12.03956216507433
H        17.88112635300605    8.37241163149812   10.56773317523215
H        18.40521505928960    7.28857137239173   11.83575947929249
C        17.74648957257222    5.23744442381926    9.49593250816039
H        18.49372771406999    4.76494086979948   10.12738642014687
H        18.27794535517513    5.85630160633275    8.77959523774011
H        17.23982170391548    4.45366258298843    8.93937659505670
C        11.39484352945354    3.10944027410592   10.65787719507817
C        10.74186828260325    4.16745323415903   11.57250879284218
H        11.41146128415662    4.41048557074493   12.40893221583613
H         9.80573487264601    3.79438581307808   11.98584144204442
H        10.53765817606279    5.07429273715811   10.99565886211527
C        10.35632169654958    2.70080224479572    9.60324694226248
H        10.15415102967301    3.54058089795738    8.94395565535757
H         9.42824139040326    2.39017786785882   10.07927553662877
H        10.73257641927261    1.87572754367140    9.00719572899690
C        11.74776360015048    1.87648898334523   11.51240525756484
H        12.15789825835635    1.09649632086901   10.87873457226643
H        10.86554804736714    1.49169569692939   12.01979690727054
H        12.49749435823858    2.14123226712222   12.25759867499088
C        12.38119671436903    3.32147815638809    6.96539522458732
H        11.64001116427830    2.54969835475364    6.78106978872806
H        13.08120078814485    3.29997568101737    6.13549453322080
H        11.87454598716114    4.28163339426755    6.93902878519134
C        13.85523841053756    1.24123745950152    8.60893829129288
H        14.42716393232075    0.98096682409630    9.49458972316913
H        14.48259251463522    1.04076561873923    7.74593282045798
H        13.00812231878578    0.56309735940094    8.55227112070587
N        12.41915563030823    7.17765770168291   10.37173782021398
N        15.37139666564312    5.49132322444418   11.51997740569509
N        12.60426237761185    3.67573638177118   10.06849347878493
Si       11.97358417060207    7.41999574589837    8.73600576994494
H        12.82315982989862    6.41901803435912    7.97824347957270
Si       16.49041863891132    6.28442819727671   10.49625034582794
H        15.57033536447217    6.94574347972142    9.47741823131268
Si       13.31039668756959    3.08346953218147    8.62554705609027
H        14.57301864672184    3.94694711873428    8.55874271375999

