119
CSD_code = LASTOR | q = 0 | S = 0 | Stoichiometry = C52H58FeN6O2 | MND = 6
Fe       20.53335485375243    1.78794308552597    4.31151178258823
O        21.88421628756195    0.87343533072294    3.19961775824477
O        22.09724086243518    2.42790758044183    5.33037078344628
N        20.57723272214062    0.21093586029756    5.28294660362677
N        20.80766790590414    3.33513525981478    3.33060418503246
N        19.16061395471861    1.31457518300855    3.17028542061028
N        18.49208430783102    1.85449695451879    6.21943961915341
N        19.34732227007807    2.50196782870657    5.53422394033528
N        18.39867519276045    2.11357392014997    2.53681651442853
C        24.11634816263192    3.62016722412301    4.80616616650937
C        22.46971703894834   -0.00501199349057    3.94040928098922
C        18.62321171501933    3.43019651242390    2.41013337971947
C        22.78851222942075    3.18592572278445    4.54866695544544
C        22.12404281821453    3.69038240771737    3.38780402773740
C        19.85910450857257    4.07469649569974    2.72848983432374
C        24.73311092947384    4.39323869989238    3.84916474484957
H        25.75399602019798    4.69342736182496    4.01304404467459
C        18.47619478896704    0.51854928787801    6.34085855473714
C        22.38836177904913   -1.26453103743493    6.05585335739873
H        21.89459938205679   -1.42094939720425    7.00088580730263
C        19.54862534733588   -0.34245058361770    5.94993917743749
C        19.96461418380847    5.45636366109098    2.47411438974187
H        20.86660245200977    5.96691956376666    2.77466298905979
C        24.80186638109834    3.20051718729388    6.09857768755976
C        22.80823984019868    4.45591054256708    2.43834668125212
H        22.29228321736663    4.71163591199152    1.52748735928525
C        21.79844189862331   -0.38229294485894    5.14499014573755
C        18.28970525268006   -2.22362817155007    6.81263904024472
H        18.19779073805594   -3.28868719658661    6.96544997595972
C        17.58281435900894    4.17997797779184    1.82859859204066
H        16.66883674548341    3.65988887347365    1.58816991006057
C        24.94393312118174    5.58667243008539    1.63795041833039
C        19.15179408396096    3.89384774714133    5.61396500249514
C        24.19382119148340   -1.55987934477011    4.52240711845112
H        25.12618751197193   -2.04754363217064    4.29446030269848
C        24.12530305165323    4.79557194777698    2.64634723605432
C        23.67326611893560   -0.67956053737829    3.60165941305104
C        23.60212032943624   -1.84422697716378    5.76617052363535
C        18.91820819145580    6.16339827880275    1.94107080535447
H        19.01531957818403    7.22841711094426    1.79122452626496
C        19.55417101071395   -1.06332031496294    2.76602719247887
H        20.56127671827770   -0.84485829423206    2.45655010248344
C        20.19847085570739    4.76499091304697    5.89261333605098
H        21.16677516413153    4.36378728184943    6.13594196726361
C        18.70681788010784   -0.01675196585284    3.11060090917600
C        24.32397875215453   -2.77669736824638    6.72654839438055
C        23.96118395018200    3.70685723922639    7.27974478434976
H        23.84256013245439    4.78805730302041    7.22728603501774
H        24.44613363375859    3.45687403747676    8.22137831980654
H        22.98028019515116    3.24083523640782    7.26465005485220
C        19.41282301719170   -1.72064970804602    6.20875576649859
H        20.18417596096469   -2.38822760803764    5.85660317772256
C        26.21590844536775    3.77325722526259    6.23361576054627
H        26.86557817061183    3.41088304319714    5.43993019508574
H        26.64123564564629    3.45507301115573    7.18349304490122
H        26.20343488586790    4.86099097614210    6.21888027274581
C        17.25576732251636   -1.37412285249984    7.22040756633971
H        16.38240991600963   -1.78528590572422    7.70303595180254
C        17.87945834814303    4.40699125315578    5.36308321567186
H        17.07183452481711    3.71888739364934    5.16638699681468
C        17.72156272273766    5.52300447847158    1.60225294466343
H        16.91090337446857    6.09253600303572    1.17422277888680
C        24.89006378576290    1.67106376768058    6.16305291430006
H        23.90102498386207    1.23082758022760    6.08784285138919
H        25.33888505455817    1.36361296092117    7.10586729170227
H        25.49934048321811    1.28577214193366    5.34858624704614
C        17.38142747084612   -0.28890557438953    3.44861314389968
H        16.72918591399353    0.53435580171831    3.69607984006092
C        24.34440052790864   -0.38650729353792    2.26747542468672
C        18.72871543438183    6.63872021531134    5.57909483496828
H        18.56906430802571    7.70605266702545    5.55040989264359
C        17.35377386209363   -0.02782543028699    6.99234297897723
H        16.56883894825348    0.65160851058181    7.28548675453168
C        17.78876145316006   -2.63699953680764    3.18528509196994
H        17.43745097508918   -3.65689079017112    3.22885540338643
C        23.35287788374244   -0.71282648941728    1.14128549404437
H        23.03430678086117   -1.75229222520438    1.20340247853097
H        23.81865758577703   -0.55070547335796    0.17114665444075
H        22.48117492570406   -0.06923702395124    1.21535087439157
C        19.98317406331968    6.13031054304514    5.87118976483989
H        20.80238927379785    6.80064594520007    6.08563044882013
C        16.93288202434283   -1.59339785974792    3.49760217730522
H        15.91201594400841   -1.79684410355996    3.78412897077385
C        24.71705634329806    1.09915775221346    2.19535285180313
H        23.83455807503128    1.71785305357378    2.32265868648019
H        25.16601761670732    1.32434169811251    1.22966846835273
H        25.43002739739552    1.35517163974334    2.97584417528710
C        19.09306703908074   -2.36580276927008    2.80747747193674
H        19.75856512772568   -3.17361257250240    2.54110849065035
C        25.42534102554133    6.89194850728989    2.28800082028288
H        24.57454985999308    7.48162232718287    2.62264813624341
H        25.99291343043360    7.48119226244483    1.57062878567250
H        26.06244786305328    6.69706724707592    3.14566830812305
C        17.67632947514570    5.77192865506627    5.33342002822010
H        16.69342838658643    6.16105201310131    5.11402209338200
C        25.61330394917053   -1.21534970259448    2.04644374506374
H        26.36725858992895   -0.98996863504274    2.79748268269968
H        26.03237428971219   -0.97471733080966    1.07129581026604
H        25.39568830879637   -2.28114525024276    2.06464152877568
C        26.15203175391134    4.74711757820469    1.20071107946157
H        26.78988345537445    4.49971432725326    2.04423963174375
H        26.74646908455762    5.29432319944869    0.47178073146454
H        25.81439767040990    3.81855607647734    0.74694392975674
C        24.13915334424728    5.94914379053362    0.38677311146353
H        23.79067778130999    5.05527973013348   -0.12466231059787
H        24.77072373547642    6.50648458173430   -0.30241731275904
H        23.28312089871354    6.57189100090477    0.63718129517562
C        23.55917175250606   -2.97103225929419    8.03877398364143
H        24.11972060235668   -3.63858760880851    8.69043177579722
H        22.58261645822297   -3.41606013344728    7.86226849488568
H        23.42984566144399   -2.02446766553438    8.55774776331652
C        24.49364777199474   -4.15207090020555    6.06515621033973
H        23.52146462509135   -4.56970531485271    5.81132939108667
H        24.99582862205752   -4.83619314785865    6.74622614745104
H        25.08339027401095   -4.08541908464954    5.15534871777992
C        25.70117781472044   -2.18757194866467    7.06140025148929
H        25.58553511743738   -1.20603886837387    7.51481852181012
H        26.31455325338749   -2.07963417703634    6.17149948210920
H        26.22662991182367   -2.83433191405853    7.76132466522612

