61
CSD_code = LASVOT | q = 1 | S = 0 | Stoichiometry = C23H32ClIrN3O(1+) | MND = 8
Ir        3.94835464915553    2.65862343714561    3.08374600401686
Cl        4.95664515542624    3.48430559928318    5.04546320442540
O         1.86214426793092    1.94953897633761    5.27691624399982
N         4.88467987400623    5.34206179676009    1.75607738473172
N         2.83546290179732    5.23939727493344    2.42171966283767
N         2.13274445929682    3.56161530706879    3.77275493311826
C         6.28258970011443    5.07333771853311    1.56220141458919
H         6.54720329229381    4.18764752953608    2.13461240948612
H         6.87092906469896    5.91670779490261    1.92285792125796
H         6.50223358215086    4.91886862669695    0.50511425820497
C         4.27819741649269    6.52477091406420    1.41263637392157
H         4.80523536835707    7.30903971832973    0.90911843908181
C         2.99331589094538    6.46848709058226    1.82940102463813
H         2.21036831194793    7.19292926457516    1.75527693695485
C         4.00841835016489    4.53749001017215    2.36515771056683
C         1.80684821701479    4.73448802702538    3.20765137541679
C         0.61624580251241    5.38587854496728    3.46706557610496
H         0.37642953370913    6.32406006130573    2.99836719758437
C        -0.25561135511063    4.78441528470857    4.36625186425840
H        -1.20951211632539    5.24075453560025    4.57754375123694
C         0.10999696355366    3.62116055544790    5.01124393026880
H        -0.55445162017261    3.16310809269340    5.72229292792911
C         1.34771803727277    3.03235642253902    4.72188224220087
C         1.74463992595944    1.67100265507464    6.71126081645512
C         2.94800709704524    0.77432060051253    6.99594902954050
H         3.04607898302905    0.61374171148960    8.06480132174148
H         3.84989607242752    1.25498911412366    6.62820570415519
H         2.82750540120125   -0.18924335311026    6.51084417370675
C         1.88343155023177    2.96006014931757    7.51603262939760
H         1.94886919227394    2.71496263047561    8.57180317225354
H         1.04014570066866    3.63140244674651    7.37693220568172
H         2.79592407155144    3.47562214395760    7.22262589815204
C         0.44732623095560    0.92300282670975    7.01621448425178
H         0.53380037118773    0.44386651116265    7.98709712473298
H         0.27450296532366    0.15234355955030    6.26863796682865
H        -0.41663412582137    1.58061066560618    7.04869158337118
C         3.30092465971701    1.13444735413772    1.59795071614401
C         4.60357635933409    1.58075537797970    1.23205196480947
C         5.47748385369373    1.29015772827023    2.33355534915718
C         4.72829680085740    0.48803979686078    3.29308748207183
C         3.40526914532454    0.39967582104792    2.84543707894617
C         2.10533321034953    1.11735331143677    0.70541269884776
H         1.18291455628550    1.16479382378022    1.28008964025553
H         2.09320900960186    0.18958977408913    0.13093968489379
H         2.12390213177199    1.94710530667411    0.00271320986441
C         4.98649243477543    2.10817245434825   -0.11207216355372
H         5.99002643377851    2.52181728603060   -0.10598803096946
H         4.29223848501715    2.86922945579458   -0.46249585417229
H         4.96501364855709    1.28565420371351   -0.82810885531832
C         6.97004510434803    1.37653043283859    2.34775288834445
H         7.38814541239230    0.37943698518681    2.20325144014827
H         7.32758735251574    1.74895312284990    3.30572141540969
H         7.34750955437320    2.01763780709444    1.55599206540837
C         5.37442481323344   -0.20494974371402    4.44276451613924
H         4.65560489121996   -0.77594890154595    5.02095723234123
H         5.86223647924111    0.51175389371602    5.10177048385897
H         6.13987258694294   -0.88614566435616    4.06985935201973
C         2.30692848863504   -0.45166944804306    3.38372509799979
H         2.54863774025881   -0.83084783578589    4.37096166074648
H         2.15426686607938   -1.30025320746460    2.71472808903340
H         1.37038079843104    0.09848662023105    3.44439394048174

