49
CSD_code = LASVUZ | q = 1 | S = 0 | Stoichiometry = C19H24ClIrN3O(1+) | MND = 8
C         0.26280906553413    5.82900283002696   20.11711484538137
H         0.51433299401664    6.87160649466976   19.93986995860531
H         1.06999893543688    5.33567937539842   20.66014304529538
H        -0.64571356134481    5.77949588936252   20.71594331513368
C        -0.67600935226010    4.02819471134178   18.70163694901812
H        -1.04933939010329    3.47956491507574   19.54193429001013
C        -0.78696148623848    3.77419229695336   17.37932230136372
H        -1.27287546199346    2.97080563901847   16.86791805823843
C         0.39494832456889    5.66969033618597   17.65269154840368
C        -0.11558263995757    5.15780018542676   15.40039223273034
C        -0.76437618775268    4.47133675410311   14.38835121705721
H        -1.27434970674230    3.54467690316575   14.58530603541584
C        -0.76194902038760    5.03055508680688   13.11861353913340
H        -1.25993944603396    4.52866396385371   12.30494660107315
C        -0.14208968540880    6.24814001378126   12.90990005486872
H        -0.15747812505839    6.72165819860194   11.94094922877614
C         0.49773569972146    6.87030285170468   13.98039764479780
C         3.55701129869325    7.31142379210142   16.96990541135341
C         3.06760313112515    7.58989507431588   18.28498553994059
C         2.27949439337678    8.78484743805787   18.20261969529543
C         2.41419193128623    9.31459536092163   16.85324204152474
C         3.21657849522531    8.43130833706802   16.11794462508150
C         4.55669384916141    6.25766087440173   16.62723524254048
H         4.47079356398015    5.95411652741225   15.58671250352333
H         4.43768046245534    5.38068415938298   17.25824763469170
H         5.56376501486643    6.64962639122925   16.77929768850903
C         3.50738365645748    6.87267788246162   19.51996097146181
H         3.42255827618971    5.79377366465313   19.41264690742419
H         2.94352600086408    7.18915057170735   20.39166117837885
H         4.55838547498248    7.10550413716465   19.69642554835608
C         1.70141715884031    9.57245104836829   19.33153536509693
H         2.28723990229085   10.48140599235139   19.47167945313408
H         1.70926137553210    9.01354608305590   20.26338831863116
H         0.67786999876091    9.86922043981434   19.10959886998072
C         1.89881635444600   10.64903666058881   16.43597267206042
H         1.96127065688188   10.77751502397694   15.35930647337350
H         2.48303473251379   11.43568739341395   16.91497701252057
H         0.86067189470604   10.76977303603343   16.73909593962675
C         3.81911204088663    8.65284676981349   14.77367189615022
H         3.79488067628129    7.74958572712670   14.16840582058343
H         4.86501217008856    8.93516055464095   14.90600036240277
H         3.31518226384993    9.45107065531925   14.23820064504471
N         0.03560776538038    5.19261085852822   18.84940904130557
N        -0.13063726917462    4.79628366950370   16.73652610208541
N         0.54240563589004    6.31286565248274   15.19176935817351
O         1.10597940596438    8.04996725355899   13.89583576063666
H         0.96882821300937    8.46924686642594   13.03608709900873
Cl       -0.85558482487815    8.24615993054896   17.00825302280654
Ir        1.31670534407226    7.30853572808647   16.91317093398761

