53
CSD_code = LASXIP | q = 1 | S = 0 | Stoichiometry = C21H26ClIrN3O(1+) | MND = 8
N         1.99017801224882    1.06724877797898    2.84416336727646
Cl        3.57868480384287    1.63016864358936    5.95752734857795
C        -0.60694456797569    2.10714844659407    5.68601625807267
C         0.18630176969866    1.53996692051608    6.70082698961004
Ir        1.57436249811966    2.78999578147693    5.39713951905534
N         3.08378476184249    2.93916910389500    2.89462436104047
N         4.42438591368810    4.93262794669848    3.09668129538532
O         5.70432989002058    6.75752325041417    3.22108245038833
C         0.75266412021542    2.62289527781961    7.48814895660569
C         0.30207521882175    3.84532631690780    6.95096116486654
C        -0.46417775354205    3.54496372582585    5.76647672222448
C        -1.58450160157073    1.41931984401832    4.78864134635222
H        -1.50489365584259    1.77231983704728    3.76241200906500
H        -2.59451400525371    1.64086164415300    5.13641605527340
H        -1.45447001088642    0.34098875495102    4.80223122245555
C         0.28288667082164    0.10447962900270    7.10254549915466
H         1.32399905909867   -0.19980609542074    7.20360036139599
H        -0.20413803184574   -0.55003424939270    6.38358735567153
H        -0.19754897044211   -0.03627669987837    8.07132738938988
C         1.48964133497940    2.41117660360603    8.76681039334520
H         1.94780717591889    3.33102648133514    9.12031224402980
H         2.27037300811227    1.66265580521075    8.64373477847540
H         0.79856106866835    2.05328963025992    9.53144101928267
C         0.39861932784219    5.19343809840950    7.58823037333260
H        -0.48683680035150    5.35560187654042    8.20528112025225
H         0.43386592390982    5.98643180580907    6.84446335671695
H         1.26969928631989    5.26944723288964    8.23506062962652
C         2.81872787975963    4.29645957164024    4.77856197002256
C        -1.31453911723887    4.52266034208611    5.02240116727947
H        -2.26404868458331    4.64935784492519    5.54512103084741
H        -1.52808571352674    4.17283585834266    4.01559015154291
H        -0.83374440095751    5.49553881583103    4.95721503996490
C         2.12968991730919    2.19153089683966    3.56138976150306
C         2.80552392854375    1.10020856084331    1.74558352229298
H         2.83981265408119    0.29939606100667    1.03513143601359
C         3.49367959483004    2.26284138020107    1.76541339494333
H         4.21929811253403    2.61851547998502    1.06823166508802
C         1.16329843313784   -0.05472478773750    3.19130906325077
H         1.67856051589527   -0.97921940425656    2.93584651284872
H         0.21388359627173   -0.01760312731630    2.65479643116317
H         0.98047647388728   -0.03451017904200    4.26268681515437
C         3.47570680227537    4.08289903494256    3.54985078327048
C         4.76229876035066    6.03499368253912    3.80613403566640
C         4.16369039623743    6.31624953262733    5.01702378278314
H         4.46425875725152    7.19474135606767    5.56159766362888
C         3.21339507134843    5.42788981133593    5.49717322713058
H         2.77911749280678    5.62140395892647    6.46391277601988
C         6.09879121061044    6.12970694214997    2.00313652022176
H         7.16958545675422    5.91861326521575    2.05984735247793
H         5.91817866097476    6.83142044864845    1.18448526697699
C         5.24409216649024    4.85315695705764    1.89526864749452
H         4.61518597263104    4.85925060470205    1.00206062406702
H         5.85857161603186    3.94993270222331    1.91578777142185

