44
CSD_code = LASXUY | q = 0 | S = 0 | Stoichiometry = C19H14F6N2O2Pd | MND = 4
Pd        2.92219928501864    8.40713677208415    2.16503244421353
F         0.52461107362831    7.19511279328131    2.17410105859753
F         0.66465340699298    8.57686974157946    0.55102186152211
F        -1.23339042084904    8.25157279293743    1.52939702028463
F        -0.60721597433882   11.08632298002524    1.23723604579228
F        -1.78624950885660   10.42521900921294    2.91418040994608
F        -0.16470068732283   11.79286682078875    3.21578397547178
O         2.45267333278345    7.73427111782089    4.01225672365518
O         1.69951042946862    9.99558440980308    2.47945091140214
N         4.09584221346456    6.90434649604323    1.72789590973555
N         3.58049419926722    9.06279114114955    0.41170997876924
C         4.20096400658166    5.77204428719430    2.41840809593580
C         5.08759486096258    4.76986752243756    2.06964679385849
C         5.89632221865235    4.94846933782364    0.95348772085066
C         5.77075193033051    6.11227338078478    0.21897188139031
C         4.85399129068758    7.08337616430188    0.62179810928763
C         4.58094412088248    8.31957680376574   -0.10838894582949
C         5.23846599983589    8.72343097578825   -1.27070383861232
C         4.85186309673016    9.89530465708390   -1.89418117208121
C         3.81827033687187   10.64334347783701   -1.34328776733463
C         3.21034851321520   10.18980469374942   -0.18572267797080
C         3.43647931239269    7.83538599471305    4.87497246197013
C         3.40534270248776    7.07513992618937    6.05954099905431
C         4.43225257473673    7.15022152602251    6.97541921509320
C         5.52476907959899    7.97352487291277    6.75082582928392
C         5.56786605134861    8.74188840210324    5.59827893239107
C         4.54654853892555    8.68216247305274    4.67164008539150
C         0.45636700574817    9.54978612153128    2.73341402415017
C         0.06868387377836    8.40008094655959    1.75687099169639
C        -0.53563291209151   10.71701968402389    2.52450992334067
H         3.55377560038241    5.67823803811089    3.28213506006803
H         5.14701681375707    3.87205539858998    2.66243910762871
H         6.60562414919057    4.19067783516056    0.65927201381594
H         6.37612986450756    6.26771693299007   -0.65894149852218
H         6.04236290657343    8.13193766904722   -1.67742005147427
H         5.34922028848319   10.22253998341094   -2.79416310890229
H         3.49164155409061   11.56269586087844   -1.80070266838842
H         2.40941846381880   10.73776807584479    0.29744491327170
H         2.55188067272722    6.43579886211379    6.23219588175129
H         4.38344755234386    6.55570186792900    7.87699138962380
H         6.32721598472945    8.02523148950538    7.47106656586583
H         6.40707560789269    9.40152288471705    5.42438590444643
H         4.56099835187755    9.33176004509520    3.78054341722579
H         0.30257223870000    9.15955973394264    3.76218607206389

