78
CSD_code = LASXUB | q = 0 | S = 0 | Stoichiometry = C33H38N4NiO2 | MND = 7
C        13.40601430878383    0.16829855595972    6.18512767941569
C        11.74693585022531   -0.20900031917585    8.00233707873827
C        11.24056566106699   -1.29408405382298    7.28859742973358
C        11.78746910748136   -1.71998854386123    6.07927021251844
C        10.08544070043500   -2.06280718268518    7.86820864128197
H        10.10567587385482   -1.98567055774030    8.95273669394377
H        10.15188309531795   -3.10366108250248    7.56019419452989
H         9.13444982336762   -1.66147128347239    7.51490489548706
C        13.46229498189968    1.41321873008540    8.28003658755536
C        12.93976629885487    2.69496548889303    8.41526835668511
C        13.52790388029761    3.55635871338270    9.33530866565509
H        13.13637800544672    4.55961733618640    9.43068180522310
C        14.57403968116395    3.14981039060700   10.14594044518107
C        15.00160006133099    1.82952104590353   10.06517521139158
H        15.77092337618109    1.48143025034397   10.74024320694156
C        14.44313185904314    0.94371571767560    9.16024137069696
C        11.71653926983867    3.14341484232021    7.67556678246208
H        11.87873406222501    4.10161724084436    7.18379291890127
H        10.90914461897484    3.26610536801379    8.39661642875344
H        11.39667621061023    2.40373673581107    6.94814323646019
C        15.19820229163357    4.08480137104078   11.13744729503239
H        14.90191030173180    5.11302786008489   10.94495206720635
H        16.28427020818380    4.01761531023736   11.09872846168883
H        14.88358785078404    3.82059972943327   12.14688668523820
C        14.81670904597039   -0.50764185945092    9.17853836757618
H        14.00410162607689   -1.07052651842120    9.63980120687729
H        15.72054049677919   -0.66920800958342    9.76168449713825
H        14.96066757135852   -0.90376745474267    8.17524890775913
C        13.32110088633179   -1.37568007586099    4.29657941980328
C        14.45806399768696   -2.18419100518746    4.25231180964073
C        14.77709928715334   -2.82291496815518    3.06434975405831
H        15.64613361803267   -3.46455368187176    3.02850259312950
C        13.98709922054543   -2.68300955282811    1.93127202472914
C        12.86238322995856   -1.87498337276651    2.00115004834335
H        12.22552483985629   -1.77174273010117    1.13359111781775
C        12.50120590662864   -1.23429148051139    3.17756776299922
C        15.29209364072722   -2.37681014693657    5.48085163190781
H        16.15884563634838   -2.99762107363278    5.26987258741085
H        14.69931278452480   -2.85362235970008    6.26097538293640
H        15.62973510268506   -1.40581337703496    5.85404277432680
C        14.32597770113203   -3.42145792235632    0.67096574844972
H        13.91533207882925   -2.91794362977410   -0.20158030256289
H        13.90186210809484   -4.42464202524923    0.70891755769879
H        15.40321398209824   -3.51959477918866    0.55216677915226
C        11.21428616949171   -0.47345096458238    3.25214785914686
H        10.95297023648569   -0.05054608999928    2.28419823237398
H        11.26547827903326    0.31698601604255    3.99678916475287
H        10.42532173260215   -1.16217811641194    3.55425176120512
C        14.00942447673896    1.50010758453656    3.57145585918366
C        12.77995784528543    2.40903377407882    1.94100238933236
H        12.01025696677479    3.01647273740105    1.51160056707701
C        13.69908397246993    1.60137801838191    1.36289130501731
H        13.87978235749198    1.37275812946413    0.33302994401698
C        12.27763592526229    3.11603050368127    4.26325745090084
H        12.78257911250037    2.98491004918362    5.22512274253286
H        11.24098273434018    2.78388362010497    4.34396109600417
H        12.28877291275021    4.17134936428351    3.98757939403779
C        15.58752462693539    0.22192698166974    2.13651395233432
H        16.41149481587359    0.80865261893324    1.72377262439144
H        15.32861349311520   -0.57089982941589    1.43724976358024
H        15.89483330701100   -0.22166203828366    3.08362047780281
C        16.42783786399215    1.29077941826777    6.68160397076815
H        16.65371408420749    0.70188351696956    7.55598941642750
C        16.97942574765595    1.08969692912389    5.40045223365069
H        17.62640249655520    0.28111543963581    5.09868489298025
C        16.60043844181113    2.19224603688462    4.61635240362492
H        16.94697082997944    2.40242057700689    3.61466264084525
C        15.94994739516973    3.15820305268618    5.46062528115207
H        15.69222031605986    4.16302130830853    5.16544135730554
C        15.85043058279437    2.61229844227623    6.72551418791355
H        15.52451619931435    3.11670140846264    7.61756844772444
N        12.87847616340928    0.46777988776410    7.37535027550197
N        12.86357654342872   -0.87882736499504    5.55681146689735
N        12.99347127839669    2.34230864552955    3.28837944638516
N        14.44819484255457    1.06485420010901    2.37061207804155
O        11.37565308328846    0.22891101941865    9.08261278200877
O        11.47330456928762   -2.69727201309061    5.41258027890328
Ni       14.83408045836885    1.25207149637538    5.32889823628076

