57
CSD_code = LASXIM | q = 0 | S = 0 | Stoichiometry = C29H22FeO3P2 | MND = 5
Fe        2.13326019964819   10.82653237950620    2.07698262448159
P         2.16213923603583   12.48669752488927    3.46544283754205
P         0.61664033039447    9.98134515594472    3.34647141979100
O         3.95486597557373    8.57288704856513    2.43064002761403
O         0.13812945177267   10.99526428046897   -0.05209282112965
O         4.16225626450060   11.79978515693450    0.24960164024331
C         3.23533583806014    9.46845964248965    2.33755251947901
C         0.91105707128710   10.95971975835756    0.80192423937830
C         3.35125003520275   11.42909888300594    0.97833485729266
C         3.50776328796034   12.64733001864981    4.68759638711945
C         4.72521552934516   13.12776932881983    4.21036671123446
C         5.81977680393206   13.19905953369219    5.04888791916707
C         5.71000404119934   12.77795505103935    6.36595731872561
C         4.50677815043727   12.28144898070855    6.83837434203017
C         3.40549872382064   12.20951776541576    6.00290224757969
C         2.02637693533756   14.23102839650270    2.94934412003052
C         2.13868244515739   15.26419801008984    3.87643435735749
C         2.00063833794696   16.57537093600149    3.46332522005896
C         1.75284565318342   16.86276787339697    2.12940877184601
C         1.64109827827609   15.83709258120762    1.20570799991503
C         1.77488404470100   14.52195377051903    1.61506505489207
C         0.71028045438782   12.37874872396485    4.56326315705886
C        -0.02176908405229   11.27130316680447    4.46683531398880
C         0.98362287023410    8.76260260933562    4.65913881577203
C         2.22542537143765    8.85127937844180    5.28054313573162
C         2.53976577588266    8.01050133419810    6.33113897386034
C         1.61384804819063    7.07720862252450    6.76953173590210
C         0.37107310851111    6.99560725337254    6.16281658778574
C         0.04818854904635    7.83911823197683    5.11466281703462
C        -0.87983340036985    9.29757114477114    2.58426315113151
C        -2.05995391899391   10.02131598110014    2.46701883537248
C        -3.12911461382871    9.48035357040023    1.77399082989292
C        -3.01938368089349    8.23022484304613    1.18865255393781
C        -1.83342214400167    7.51681722555478    1.28246243128284
C        -0.76238519091567    8.05196323058114    1.97028916650045
H         4.79578700849069   13.44100942533616    3.17512840198192
H         6.76143770649172   13.57687015123776    4.67829680969441
H         6.56631419080972   12.83078342067157    7.02201709238487
H         4.42470250156602   11.94567661241616    7.86228644605130
H         2.46844912764425   11.81155548587205    6.37075814444601
H         2.34679954932341   15.03660117803740    4.91389110555383
H         2.08943504284349   17.37794512151389    4.18131356093882
H         1.64954208138059   17.88970989917966    1.81102273332416
H         1.45062166483116   16.06187171240111    0.16655000905154
H         1.68897636484827   13.70654143095883    0.90677387258705
H         0.48246344246727   13.20603203922080    5.22811119558314
H        -0.89551832686681   11.05741987660133    5.07512732105462
H         2.94224884532609    9.58424408883113    4.92925837065807
H         3.50734825871493    8.08142832396595    6.80603535082906
H         1.85983244583528    6.41423424714506    7.58586764915204
H        -0.35268693038787    6.27184169470832    6.50860369063125
H        -0.92438702175419    7.77466403626036    4.64672555702945
H        -2.13502187993768   11.00723860164753    2.90661918464094
H        -4.04840356191260   10.04062050350981    1.68316832250365
H        -3.85572965030714    7.81463881454162    0.64623150416709
H        -1.74500641500366    6.54910163369100    0.81078734865124
H         0.17945677719048    7.51977430997419    2.04179102918105

