89
CSD_code = LASYAF | q = 0 | S = 0 | Stoichiometry = C40H40N4O4Zr | MND = 8
Zr        1.90400054066386    2.12424785585298    3.33961901890291
O         1.22496788212786    0.91152509450959    4.83084611261380
N         3.84627238536555    1.01849213069414    4.17205735737507
C         1.38427027183405   -0.36586106250340    4.90319249839418
C         0.29083109725564   -1.21121056041992    5.22118940271927
C         0.42915828861268   -2.57340140984664    5.31553645061515
C         1.67004760007523   -3.17615116794217    5.11964599452990
C         2.76142589971682   -2.38828098388805    4.83986031326226
C         2.65288358618657   -0.99777792983911    4.71846643239343
C         3.83758882201409   -0.22675081521822    4.46020999411113
C         5.08160466243851    1.76373285198397    4.02973048295945
C         6.37253184396986    0.94853880634009    4.20654452845790
C         7.61483171263578    1.81401854880318    4.03698289664097
H        -0.66960172674897   -0.74253928063626    5.38842362688301
H        -0.43070504155812   -3.18650094694448    5.54786685712060
H         1.77219376250189   -4.24764917856055    5.19458552335041
H         3.73079969073072   -2.84626228176825    4.69521284008886
H         4.76177773125333   -0.80677471065536    4.57002040607100
H         5.04001820264875    2.54559848356798    4.80472704915769
H         6.37993780982806    0.49994242141189    5.20251411481630
H         6.40089731936139    0.14854239663691    3.46219804434202
H         7.62440831629737    2.60185366082128    4.79314126228085
H         8.50841182899136    1.20293367396913    4.17930047546584
O         1.22489624576557    3.33636769663045    1.84812481546169
O         2.58310175103423    0.91213047171095    1.84812162544480
O         2.58303343363619    3.33697243597461    4.83084506795302
N         3.84689297808396    3.22982398128858    2.50732242587087
N        -0.03889294711559    1.01867514629231    2.50732063069238
N        -0.03827220911328    3.23000745831231    4.17205195714231
C         5.08244763940172    2.48519649769065    2.65145239870118
C         7.61590545582065    2.43668756549918    2.64894842188473
C         1.38481065561656    4.61350714895116    1.77319425300017
C         2.42318792765486   -0.36500905040767    1.77319266092483
C         2.42373022710316    4.61435837931197    4.90319487036904
C         3.83812123125742    4.47460135006306    2.21711362582824
C        -0.03012204004165   -0.22610194523150    2.21711073045316
C        -1.27444736324975    1.76330293722984    2.65145194139283
C        -0.02958798763639    4.47525150073880    4.46020059507734
C        -1.27360484774682    2.48476627539074    4.02973014725423
C         6.37322482775846    3.30112477772616    2.47673881290132
H         5.04252515766304    1.70330218868010    1.87638636440709
H         7.62769638875014    1.64882076122726    1.89285157036270
H         8.50922374289856    3.04855652853069    2.50836655875012
C         0.29173831933971    5.45860815451744    1.45327342673742
C         2.65362511592383    5.24529454413977    1.95691410531894
C         3.51626051708462   -1.21011023986268    1.45327308917870
C         1.15437378541513   -0.99679636708586    1.95691368873578
C         3.51716995678926    5.45970820362221    5.22118876557758
C         1.15511715124427    5.24627606208144    4.71846610168664
H         4.76230683659943    5.05450371875379    2.10673701599520
H        -0.95430812106170   -0.80600485760256    2.10673728499335
C        -2.56522519731675    0.94737563470603    2.47673883727589
H        -1.23452475553250    2.54519719576309    1.87638575089273
H        -0.95377608902525    5.05527201255666    4.57002330223904
C        -2.56453133389673    3.29996159071622    4.20654411951002
H        -1.23201821901388    1.70290101350101    4.80472731371220
H         6.38231621798403    3.74930303749536    1.48059575935508
H         6.39952429127400    4.10146733453818    3.22079425424189
C         0.43057809013855    6.82053486173177    1.35608292259881
H        -0.66881284471203    4.98990475811734    1.28683822623404
C         2.76264788451926    6.63552387352672    1.83272843942274
C         3.37742078319725   -2.57203705392876    1.35608351691982
H         4.47681168150774   -0.74140686678262    1.28683794219992
C         1.04535104041034   -2.38702586149801    1.83272977764248
C         3.37884296006483    6.82189915197601    5.31553551120463
H         4.47760274468654    4.99103692613979    5.38842312245557
C         1.04657502150392    6.63677901245710    4.83986171917156
C        -3.80790584209963    1.81181297260376    2.64894764843725
H        -2.57431651662811    0.49919802624666    1.48059562884756
H        -2.59152494572422    0.14703263984226    3.22079374326398
C        -3.80683130431138    2.43448192614498    4.03698215302962
H        -2.57193697720697    3.74855885418281    5.20251350061595
H        -2.59289673758949    4.09995746171386    3.46219687465616
C         1.67164945738318    7.42322152529328    1.55101139867612
H        -0.42899496018429    7.43345161707629    1.12220339481437
H         3.73214865557476    7.09345973004795    1.97667091661026
C         2.13634946520048   -3.17472367203045    1.55101269240864
H         4.23699380594762   -3.18495393995912    1.12220425717223
H         0.07585019505112   -2.84496152853115    1.97667200597268
C         2.13795353839122    7.42464896127454    5.11964654737136
H         4.23870595921190    7.43499832255412    5.54786853941038
H         0.07720142089001    7.09476071548187    4.69521344572500
H        -3.81969622318233    2.59967978711010    1.89285075409178
H        -4.70122428608640    1.19994422021157    2.50836546712699
H        -3.81640848664470    1.64664688074612    4.79314063381192
H        -4.70041121601996    3.04556711743152    4.17929933999519
H         1.77421513759566    8.49451963612477    1.47384912387365
H         2.03378365042244   -4.24602178831572    1.47385061212330
H         2.03580761914125    8.49614699319779    5.19458617224744

