76
CSD_code = LATBIS | q = 0 | S = 0 | Stoichiometry = C19H48N4Si4W | MND = 5
W         3.23913729185416    2.85219533517226    3.04831092895699
Si        1.90865300375579    2.08060951355402    0.21447488236956
Si        1.52545334441067    2.34198465702031    5.72879157279478
Si        6.45428187841297    2.81526752406548    3.26889301105698
Si        3.69422385816472   -0.84763426565742    3.25525191060194
N         2.93305107907715    3.18223050133901    1.06564165419035
N         1.61831571688453    3.19363451210906    4.22756896679381
N         4.99161628725269    3.58647662561010    3.77219797714775
N         2.97293149248600    5.00421403435413    2.92951776037399
C         1.07228439728273    2.92882325195253   -1.29593881051234
H         0.44531704072009    3.76811509681772   -1.00726953350164
H         0.43988442549356    2.22200615673842   -1.82163812727150
H         1.80887700138852    3.29465460753608   -2.00422121574528
C         0.52136973095306    1.54851807743874    1.43293561294643
H         0.90642191921788    1.61538828204586    2.45857556137322
H         0.22436752060676    0.52096705577283    1.25768181354811
H        -0.37213765890612    2.16251120735790    1.34671603712174
C         2.91008449725714    0.59852281449309   -0.45827362574251
H         3.57445727493419    0.88945677746350   -1.26633005728429
H         2.25252395138698   -0.17618922016359   -0.83645770526900
H         3.51033047110979    0.17197253154779    0.33791683906656
C         0.50784624182025    3.32744802501495    7.03041674612384
H         0.94584661537866    4.29642355079252    7.25422334959569
H         0.45586231755222    2.77614576191097    7.96275844398166
H        -0.51069769300860    3.49460217815175    6.69490509094416
C         0.66008468158549    0.65321761278751    5.50282467622810
H        -0.39957986287904    0.76375589108195    5.29355778220723
H         0.75695421112354    0.04405200620216    6.39453465579210
H         1.11517263430963    0.11708522357584    4.67731349390378
C         3.31981457164236    2.17318646404621    6.39578713797036
H         4.01534511987432    2.17558860196737    5.54702128277298
H         3.44949448257073    1.23720232201734    6.92629752797759
H         3.59075936823393    2.97306985604213    7.08081277968911
C         6.19965430608744    2.25475783069866    1.44852108877959
H         5.13000955996648    2.07821145137479    1.27852372241032
H         6.72279099463423    1.32625798402865    1.25199811718872
H         6.55887789767472    2.98666076016987    0.72896383252964
C         6.89643709551855    1.36494664836662    4.43214300172546
H         7.20642839865570    1.71039836735376    5.41370876778451
H         7.70541565056171    0.77042795190939    4.02260810943654
H         6.03351062036985    0.71983289265746    4.55593244422149
C         7.93707374361544    4.04030722373081    3.30336035701960
H         7.79290948422362    4.88638195679861    2.63682693184749
H         8.84680625048600    3.53863053190143    2.99255549401730
H         8.10653384258307    4.43101686481671    4.30170344456384
C         2.20665960839825   -1.84542826776583    2.54970161320556
H         1.29089401007787   -1.62263333362732    3.08868359915388
H         2.37303118409907   -2.91703145700074    2.61725595601268
H         2.03535857734861   -1.60285527182157    1.50616703993507
C         3.92470091748882   -1.49312351580324    5.05424639908417
H         4.79768781264018   -1.04983799176107    5.52338500024604
H         4.05157973678252   -2.57186681528643    5.08121654158902
H         3.06592287016688   -1.24602145243211    5.66947677591429
C         5.23181647825044   -1.48957570854675    2.29092537594535
H         5.16024761043191   -1.25566978456419    1.23313424998801
H         5.34155461774446   -2.56684461368300    2.38055812494255
H         6.14294001684124   -1.03263784773796    2.66267059104155
C         3.24671136789211    4.49648482718947    0.55577640435354
H         4.07998607783973    4.44991981505784   -0.16596625276307
H         2.39579772584699    4.93343333493298    0.01103465982333
C         3.65790650256762    5.42356434647927    1.71668381789999
H         4.73526259148980    5.32213027161161    1.88220093666753
H         3.44307547913202    6.47862943869550    1.47001850101683
C         0.84948436770296    4.38840910486421    3.96852901748586
H        -0.16880034157589    4.13439892151990    3.62824340897681
H         0.72438847873468    4.99499609788907    4.87839526331120
C         1.53632454911181    5.22504474072317    2.87092460198492
H         1.17935063081873    4.88359470055281    1.89401576961443
H         1.28255975326190    6.29473650798574    2.97810992743385
C         4.97248492904943    4.91837846210814    4.33009180289836
H         5.19772096273501    4.89577664984216    5.41004529599716
H         5.74022471912582    5.56074683058474    3.87211228387453
C         3.57855009754594    5.54753437400540    4.13528072049239
H         2.94723588269604    5.27319689163247    4.98650169489474
H         3.64852759312941    6.64924558280565    4.09668001500696
C         3.47072013630424    0.97617212759137    3.15245713224401

