86
CSD_code = LATDOA | q = 0 | S = 0 | Stoichiometry = C37H41NO6W | MND = 6
W         1.76254231812420    0.68544201236234    5.40345941899339
O         4.46104932088527    0.15501868845373    3.90350900505134
O         3.50807321824882    1.40315164583384    8.02210236026298
C         3.25012830191399    5.60978231877323    9.51266736790721
H         3.10865430303850    6.32215652421724    8.70450386222229
H         4.22455041836161    5.77735141699995    9.96275062615181
H         2.49272917266379    5.80598297299682   10.26956442002648
O         1.79794059636956    3.73428874648810    4.68572975014162
O         0.61688053834030    0.60369992425023    2.48615841396657
O        -1.14618554719608    1.26378798120033    6.44017477678657
C         5.61126870365089   -1.11554218859327    8.15659911839754
H         5.27258720719894   -1.78407885045870    7.37736027589374
C         2.99670307197310    3.29690033165803   10.25546080906328
C         4.70223214506539   -0.64931250154599    9.10132640391074
C         3.09305127699709    4.16225509114231    9.00517500134544
C         7.36240839214049    0.14170156888249    9.20854304466513
H         8.39746045370860    0.44802715357258    9.25133102285242
C         5.41992987216121    2.01463190145451    6.70498692633341
H         6.13059555049706    1.83262244116648    7.51345962752442
H         5.26601495598278    1.06950289373226    6.18222608575383
C         4.86188538594150    4.80636630269054    7.22215952648224
H         4.11122218855423    5.02936911815089    6.46162896660430
H         5.06333725837221    5.72175860350215    7.77602507356262
C         4.04568866258213    3.30408595555520   11.17334743747129
H         4.94177203652977    3.87172725826743   10.96934983146424
C         5.13363510339756    0.21685518891537   10.09771139676691
H         4.42640316212058    0.58341651766407   10.82363142953448
N         3.10148764779956   -2.37983395813653    9.59363697328904
C         7.28308892784430    2.60564652263827    5.12983366773350
H         7.67852723621685    3.36540134298270    4.45989700989313
H         7.12491314797960    1.69342933064920    4.55999999886087
H         8.02388256185029    2.40621970267905    5.90151989522120
C         1.81366230590649    4.12827424482608    8.16398877488627
H         1.94239742826186    4.74020938209119    7.27443830120273
H         0.98422783577568    4.54402764055233    8.73264158937536
H         1.54663272309305    3.12104422019172    7.85042548037707
O         1.63141556167122   -2.44997574938687    5.36826137035320
C         2.60327091246384    0.61303792529772    7.46577248801840
C         6.45834064001751    0.61101933523209   10.14782511256344
H         6.78511953893556    1.28654259160647   10.92485229974633
C         3.54086568770452    0.38355851182945    4.54756562753369
C         5.97332073518482    3.07269325032877    5.75583657165313
H         5.24347849051119    3.24038742203110    4.95544339346773
C         0.14071483956263   -0.48257169263653    9.53610811358097
H        -0.84770693702488   -0.93211156004836    9.60525804771996
H         0.02698688294060    0.58724624521685    9.38628427476384
H         0.66703546372462   -0.65433072275746   10.47202351429893
C         4.33088819899487    3.72055541795293    8.16998384043411
H         5.13063386713032    3.47244463062544    8.87465777455763
C         3.30178009978303   -1.13962417501362    9.05090656674141
C         4.04606276183707   -3.02720033996406   10.47624961894503
H         4.27485360945390   -4.02584414365591   10.08647498677415
H         4.97149823355652   -2.45134652042270   10.50784286949264
C         2.01045000016197   -3.12804662183517    9.18326390445081
H         2.08402114306474   -4.18650826261590    9.38210490908195
C         3.96751930558542    2.60846433096684   12.36521463608352
H         4.79553981452351    2.63841830426187   13.05944421782932
C         6.93552701571699   -0.71834069478932    8.20987572378544
H         7.63459895349174   -1.07900326457698    7.47007100721370
C         1.78048136376715    1.86537806507213   11.77553813190904
H         0.87962902202226    1.31609554842348   12.00842519649215
C         2.82983944801963    1.88250491769152   12.67499546053914
H         2.76238276465138    1.34249486372694   13.60802844661236
C         4.08816283295305    2.47847589348190    7.29740848773759
H         3.41835353332705    2.74134313744574    6.46852541235471
C         1.86379696851678    2.56535992267633   10.58313927398400
H         1.01937368071651    2.54274507712809    9.91492047684190
C         6.15661414528339    4.37109391442426    6.53790584495642
H         6.49306647015229    5.16374148560373    5.86665104087518
H         6.93272110861979    4.22321317795232    7.29323037564883
C         0.91714621654883   -1.10064160603040    8.36223908539907
H         0.36978945015789   -0.85916592400655    7.44751416764678
C         0.99137337459719   -2.58447282864939    8.52818799330447
H         0.19534596642726   -3.19382543305273    8.13500678471488
C         2.32317867997654   -0.52020302399155    8.31305737136869
C         1.84096782299254    2.65469856012838    5.07418722522353
C         1.02561117976322    0.63058556081689    3.55509558557412
C         1.65541262277866   -1.31036449194943    5.46842889969491
C         3.30159511857027   -1.78898675288981   12.55453983655495
H         2.85326140216852   -1.89982604596041   13.53873785264701
H         2.65834615626414   -1.14914320178508   11.95452094265482
H         4.26464041701123   -1.29594217568560   12.66740519158990
C         3.47212254612491   -3.15000631681333   11.89314681370727
H         2.50598841378156   -3.65700857392141   11.84558219812629
H         4.14765499381219   -3.76743540140627   12.48768706051550
C        -0.07784840045902    1.01335998820773    6.11595030424031

