21
CSD_code = LATFES | q = -1 | S = 0 | Stoichiometry = C8H4CuN4S4(1-) | MND = 4
Cu        4.27025920793519    1.31160870944250   10.39302720962985
S         3.16811064070323    0.29235400889228   12.01233053963329
S         6.10782426149462    0.14024057101418   10.75679617161080
S         2.67070659019354    2.83400206233043   10.33056449859819
S         5.13678523928848    1.98285329361705    8.47619971933648
N         4.03370187386473   -1.52687863038523   13.70442120238606
N         6.51361868114236   -1.79143769503403   12.49655225319356
N         2.16218655347070    4.61385997609887    8.46096752341900
N         4.40277423948046    3.99734278763400    6.95153932571008
C         4.35936305462602   -0.79361682536047   12.65766593224275
C         5.63905398059995   -0.90518297937497   12.06171768425162
C         6.16228921069309   -2.54438355610280   13.53644059975668
H         6.89946948870419   -3.26415538686444   13.86662042201644
C         4.93557820086001   -2.39806289136541   14.15069008167207
H         4.63977030867230   -2.98070621127184   15.01300529928660
C         2.98743202504137    3.65487596522447    8.83342802358766
C         4.11425754947853    3.31818067182473    8.04465166874756
C         3.57668946563743    4.98049647316183    6.60122099836364
H         3.84303378478287    5.52095269338432    5.70265811970989
C         2.45026986440206    5.27415240076511    7.34184415565290
H         1.75202577892890    6.05180456236973    7.06205857119508

