53
CSD_code = LATHUK | q = 0 | S = 0 | Stoichiometry = C22H27ClO2Ru | MND = 9
Ru        4.38740853639559    3.10312249497379    4.07043875077605
Cl        6.43611463359202    2.02757920678212    4.39194103381524
O         4.44717691882986    2.21823584513295    2.19690413610663
O         5.51985878666589    4.67129242961919    3.34022820485516
C         3.46839150782221    1.99117074650669    5.81713583527891
C         3.94364631454675    3.27008433242578    6.27280013253797
C         3.47880145992718    4.45464830012872    5.66301169214282
C         2.57630067167830    4.37795383783652    4.54423389740961
C         2.08609170192499    3.12893528349864    4.11631928651516
C         2.58645600371674    1.92216920445245    4.71548866899286
C         3.90113450373370    0.75062784248527    6.54848058865857
H         3.98843958439544    0.94876183437012    7.61394523644090
H         4.87719943256514    0.42932014247101    6.17887332907942
H         3.19066442200265   -0.05918232650672    6.41191373518049
C         4.93880662623541    3.31001872131920    7.40146225833166
H         5.48965693403898    4.24514385064022    7.40779851502845
H         5.66641661648708    2.51143318708419    7.27247550600410
H         4.44000662552492    3.18480518590419    8.36449918386604
C         3.86266116242593    5.80429061753232    6.21237334998825
H         4.04506970814743    5.74774408076754    7.28237232602049
H         3.06662654327383    6.52645275959876    6.05014516930330
H         4.76830851479907    6.16976328919227    5.72604800854972
C         2.13566710333873    5.64775444086844    3.86295844884457
H         1.87585822374437    5.46052882664665    2.82461799111533
H         2.94153331043175    6.37707306410602    3.86732591062380
H         1.26955807902862    6.08076242255168    4.36828197305510
C         0.99828466219760    3.03833167753877    3.07786361059703
H         0.40157005214662    3.94631977843445    3.05828241484553
H         0.33302601588741    2.20811733321001    3.30376197740327
H         1.41872914205273    2.87888870657658    2.08439964087344
C         2.13066484876708    0.58687351203500    4.18636845931744
H         1.23504381256424    0.24569000499540    4.71005449178701
H         2.91464489230449   -0.15553616421720    4.30793640671943
H         1.91306820729721    0.65213074892032    3.12405955575839
C         5.26016507886044    2.53906802395114    1.29008905614605
C         6.13424881439535    3.63153621290916    1.28632441041143
H         6.75656940736349    3.75584066089070    0.41470362844532
C         6.18731813251608    4.62858494318769    2.26704985758027
C         7.05254165291764    5.81277888660361    2.00689668297802
C         8.30670973701271    5.68718284925460    1.41773239050850
H         8.67782490699633    4.71021055018119    1.14928406351328
C         9.09140735707288    6.80713071328084    1.21128753473399
H        10.06730977090697    6.70147776614820    0.76028020128882
C         8.63425270158702    8.06068779886611    1.58355834293260
H         9.24850933261359    8.93313978443640    1.41536262205606
C         7.39142876150853    8.19110595861035    2.18082471241703
H         7.03415290701370    9.16604233049942    2.47975033848740
C         6.60939265251196    7.07285197970591    2.39893155055389
H         5.64044926885232    7.16280819261221    2.86776931173202
C         5.25449374163814    1.66083031369369    0.05561654660786
H         6.19184741789461    1.11038101422729    0.01225726476984
H         5.16344404299067    2.26210835321433   -0.84522952904011
H         4.43214875685795    0.95272844984478    0.11481128804969

