60
CSD_code = LATJAS | q = 0 | S = 0 | Stoichiometry = C27H29ClO2Ru | MND = 9
C        -0.25492706322496   -3.03386723722487    1.49983889535378
C        -1.19358608515066   -2.40757524596325    2.34709857154459
C        -1.86902050238973   -3.17926383548011    3.35725910667031
C        -1.66216692786779   -4.56883834159695    3.44612068857689
C        -0.67582191485193   -5.19587426033022    2.60845329092567
C        -0.01702408029612   -4.44836346383472    1.60739585298602
C         0.51636713503873   -2.25018997365872    0.47250144223572
H         1.54701138815064   -2.59786695220766    0.44885717175976
H         0.54267341422914   -1.19393644205385    0.72048882873372
H         0.07637836572710   -2.37221915593814   -0.51911346334103
C        -1.55856552267962   -0.95722782010922    2.15892224370556
H        -1.42387209671730   -0.65588425977385    1.12342345558619
H        -0.93448972639512   -0.32073166674732    2.78794334550193
H        -2.60033084292925   -0.78733555818329    2.41961649948466
C        -2.82767017124062   -2.49078065215088    4.29362181604280
H        -2.88658310226406   -3.01619901929590    5.24309721308802
H        -3.82808441193784   -2.44169200031192    3.85814900496708
H        -2.49022065651992   -1.47917317629786    4.50306913609615
C        -2.50839083791399   -5.41591892472985    4.36153362475718
H        -2.02888018831584   -5.54768369017940    5.33210119381505
H        -2.67001025134642   -6.39823454978230    3.92414414813142
H        -3.48207121539033   -4.95905849433829    4.51958258541084
C        -0.37949793720760   -6.66351172519734    2.77717207064636
H        -1.00187329221025   -7.26558270263448    2.11170961663195
H        -0.55765982321471   -6.97565054161929    3.80206821040931
H         0.66646563609352   -6.86360014167250    2.55990201076488
C         0.91209123028640   -5.10839487235058    0.62582796659528
H         0.70242337105956   -6.16978410207313    0.53265545621265
H         1.94547361633690   -4.98185318430218    0.95464964741064
H         0.80976247435552   -4.65497061276757   -0.35717049558738
Ru        0.36510325236956   -3.48182072572648    3.62180238564232
Cl        2.63507209168679   -3.19030780298068    3.15659312238430
O         1.04143905780551   -4.70179323048804    5.13596389980033
O         0.57714440374214   -1.84747689620898    4.86177852968175
C         1.23548793988710   -1.85098087109113    5.94136482853748
C         1.80849807025052   -2.96145509300933    6.57406939990351
H         2.30959144396885   -2.78893679441654    7.51213639130014
C         1.65545729509670   -4.29211958360571    6.16276831899405
C         2.19321452374460   -5.36074912226151    7.04946556892883
C         1.50340988224137   -6.56631505188230    7.14864886091328
H         0.58526235168884   -6.68849637633242    6.59319523418211
C         1.98223378882619   -7.58639194324248    7.94807398730082
H         1.43455832044421   -8.51464492746182    8.02445355671170
C         3.16670956173381   -7.42034841516085    8.64659642456191
H         3.54494674060267   -8.21786525489443    9.26919186537874
C         3.87063568927657   -6.23251414021521    8.53545962059084
H         4.80349991864704   -6.10738104300499    9.06563966204875
C         3.38909579090313   -5.20573580199752    7.74410122213249
H         3.95725103299474   -4.29439266055418    7.64066282520674
C         1.33313093028259   -0.53515152460830    6.63197041716380
C         0.25120414421530    0.33913280230812    6.57377709981456
H        -0.63801217649776    0.03371898927962    6.04208603377608
C         0.31014973945496    1.57167261827495    7.19568993071531
H        -0.53867438991691    2.23886389728294    7.15285756840027
C         1.45859405177348    1.95240075092052    7.86984482906516
H         1.50791825603325    2.91661562927123    8.35416824954373
C         2.54738606856671    1.09702999856439    7.91310700950803
H         3.44968895530591    1.39891373761671    8.42460526936102
C         2.48806063445139   -0.14150522898757    7.30076874418611
H         3.34844264552815   -0.79250333672299    7.31584000875935

