70
CSD_code = LATKAT | q = 0 | S = 0 | Stoichiometry = C31H33AuN2O3 | MND = 2
C         4.94873658175061    6.36326857913762    3.57588674941727
H         4.99669366203139    5.46800419048481    2.96734228597874
C         6.06676877839034    6.82752810061843    4.24133795578778
H         7.01321162196046    6.31147651891076    4.17173970194524
C         5.95281515703249    7.98802504156692    5.01371723188611
C         4.70150948730193    8.61066106293562    5.06447086267149
H         4.56431958924839    9.50932542553256    5.64794646419876
C         3.65557818886817    8.05212804171033    4.35546129122790
H         2.67118606197989    8.50482287832250    4.36942190025908
C         7.06240506626537    8.51273672778798    5.71391715510031
C         8.01472031071226    8.96349770336270    6.31359676728734
C        11.01675017905886   10.38825361352097    8.15190441508975
C        13.05278870501118   11.35751813741132    9.27707942564695
C        13.43636971796643   10.89349306410608   10.53584830116616
H        12.86070336014327   10.12056954297479   11.02154999453027
C        14.54655383673867   11.43498145468652   11.14472397231994
H        14.86281063710116   11.09554015944069   12.11827230109417
C        15.28123637278163   12.43472659559556   10.50767456141164
C        14.90402261158304   12.88577710108117    9.24636973360402
H        15.47245470753109   13.65485488035781    8.75056293494440
C        13.78874297962384   12.35103423473544    8.63426364256721
H        13.48407419256033   12.69534805996029    7.65786793752726
C        16.82691484505602   14.16805394744635   11.08157768434365
C        18.07360752665913   14.37507016692576   11.83092428072601
C        18.74852029587799   13.33602051035866   12.47736629857654
H        18.35419600306936   12.33322531835988   12.43409676585247
C        19.91101018876754   13.59086692986442   13.16290123317224
H        20.44644402455090   12.80264476213798   13.66792523225594
C        20.43702475806699   14.88840871038091   13.22639907313166
C        19.76576350653495   15.92610939374528   12.57753333808467
H        20.14638047498828   16.93453699711985   12.60536532576576
C        18.59917482966055   15.66463944325029   11.89042245015380
H        18.07129954060522   16.45983860364281   11.38616493038683
C        22.18538300873348   16.29774325302751   14.04050169482263
H        21.49321909280566   17.00620559724842   14.51530440759262
H        22.44850773661478   16.67713773684765   13.04383882273803
C        23.44074625457420   16.14238173040707   14.89147442307278
H        24.09456526237572   15.40799286472569   14.41847587642134
H        23.15368881542392   15.75133372888938   15.86884784228980
C        24.17709327886988   17.46877314817058   15.05520734162301
H        23.50569328751206   18.20323763577893   15.50627417826077
H        24.46678276877775   17.84645782063273   14.07185082135243
C        25.42239727028853   17.32306235709930   15.92639004326578
H        25.13184108365344   16.95306543062882   16.91201306155713
H        26.09081039058291   16.58348612170558   15.48030624847868
C        26.16713498949394   18.64659544332782   16.08365648717394
H        25.49663973147888   19.38805207672004   16.52434976074076
H        26.46215777565028   19.01409115754282   15.09805472196600
C        27.40848032101517   18.50558235361877   16.96096294518762
H        27.11332041526704   18.14033353219147   17.94734515608571
H        28.07819125985271   17.76260336251935   16.52169546518632
C        28.15566370685928   19.82786551738364   17.11632584362135
H        28.45100757461939   20.19360754217255   16.12999676909942
H        27.48634404633940   20.57130804458944   17.55584988413262
C        29.39672135594264   19.68498317217731   17.99370258183970
H        30.06596275857174   18.94197419894203   17.55322803131338
H        29.10091663841364   19.31838157921446   18.97963692535172
C        30.14681205573041   21.00522884711960   18.15265425874993
H        30.44242724095421   21.37279099911446   17.16721399876056
H        29.47923783672674   21.74813122276619   18.59534789826090
C        31.38456788520640   20.85158763183143   19.02788795833298
H        31.90447860588184   21.80152920684242   19.12811217128377
H        32.07138384688832   20.12852503419911   18.59301744625781
H        31.10824242618403   20.50492136959076   20.02141721691253
Au        9.52728553485967    9.68103838145486    7.25388059491213
N         3.76328580070591    6.95316803875801    3.62328804547219
N        11.95944197677463   10.83513673709372    8.67213599606641
O        16.39818555068873   12.87803995699030   11.17175412322271
O        16.23306482445576   15.02511884943623   10.47745026700609
O        21.57782979172781   15.02264242174062   13.93001849345702

