60
CSD_code = LATKIB | q = 0 | S = 0 | Stoichiometry = C21H32N2O4Zn | MND = 4
Zn        5.29675336700156    0.94000642890229   15.84079945593408
O         7.02279537981995    1.86811379530826   16.52093484451691
O         5.54568453036059    1.12029301887465   17.93469339157249
O         6.30396024481788   -0.84109884264495   15.65951670071113
O         5.92193823676879    0.38123876130961   13.89841738888070
N         4.47373147800679    2.79558553315401   14.94906823978285
N         3.14995916858940    0.56103885896122   16.22310636656981
C         5.67065314379538    3.44596930312575   14.39034932860049
H         6.01295576678077    2.83260127703930   13.55705938731045
H         6.44564733156452    3.42130591356552   15.15674299103359
C         5.47817177954451    4.89769090378682   13.96174103915214
H         6.43452822638000    5.27955912326874   13.60212233211813
H         4.76095671193989    4.98374288550055   13.14290153873230
C         4.99578483139768    5.70280838585848   15.16081753304583
H         4.83737724721784    6.74960893551409   14.89228422513419
H         5.74940588056879    5.66555441644887   15.95055253428519
C         3.69547239425025    5.08581944287741   15.65924471123225
H         3.33884448243721    5.61636263859373   16.54448549579097
H         2.94045139836623    5.19616428582593   14.88024117153648
C         3.88875384152342    3.60400947703895   16.02715694053090
H         4.60381991475893    3.56709673373731   16.85884006694271
C         2.56222604773631    2.99695913688312   16.50764314326306
H         2.16240593544034    3.66208742116502   17.28182821852149
C         1.57101816555662    2.88225179489455   15.35466351653320
H         1.38036471273291    3.84743278112508   14.88618263335703
H         0.61389218720639    2.50189880016692   15.71921372039882
C         2.19695831660202    1.90712848540781   14.36534965385503
H         1.54949817680264    1.79438991776241   13.48756351603278
C         3.52289806543575    2.49039573078082   13.87603195108666
H         4.01671474642940    1.78438801239794   13.20799069553681
H         3.28600672595618    3.39442645742156   13.29937005655471
C         2.70720876224854    1.61522903531772   17.14617792392827
H         3.42330527051660    1.65582410276664   17.96618260472138
H         1.72361803753175    1.33858123574130   17.56065256929857
C         2.28322890377727    0.53212585256106   15.03974035178757
H         1.25646559235597    0.28602240720933   15.37534626776094
C         2.72895334933661   -0.57478352036605   14.08945279380974
H         3.76983696855821   -0.41987984151629   13.81001665959131
H         2.12012785601868   -0.53984530156136   13.18334998046365
C         2.58114828711250   -1.92675941446447   14.77761419129619
H         1.52515660757103   -2.11206191621692   14.99743474839784
H         2.93133378134381   -2.72511706067009   14.12175970049158
C         3.38785365520689   -1.91776182508717   16.07029967585021
H         3.20196948074757   -2.82898146849852   16.64196932153262
H         4.45093091070192   -1.87797830333801   15.84079572425153
C         3.02012941415882   -0.71970665896997   16.93468866431362
H         1.97907930172013   -0.83033968381384   17.28185251844172
H         3.67732329327697   -0.68068340541642   17.80388375012349
C         6.67156447332798    1.61518988908795   17.69581541073701
C         7.56998203188284    1.93934088432378   18.83376248598628
C         8.77466583893462    2.45619076335819   18.65234369481281
C         6.48778091887631   -0.59492208700401   14.44512059126788
C         7.34272003155417   -1.48589466707481   13.62157296007691
C         7.94985505021739   -2.54417481226536   14.13396541918513
H         7.16566730206817    1.71636412355625   19.81055908957418
H         9.43311015695670    2.68896257449998   19.47285475775736
H         9.13423012312451    2.65145740900397   17.65525688682598
H         8.57353065287401   -3.19408420463494   13.54293995407281
H         7.83311007250637   -2.78004326650332   15.17891355197948
H         7.43068543970742   -1.20190065408246   12.58306496311075

