56
CSD_code = LATKOG | q = -1 | S = 0 | Stoichiometry = C16H26N4O9Y(1-) | MND = 9
Y         5.69965653076696    2.92583798416265    4.80360649498243
N         7.78765333169812    1.06333629297077    4.68205196264042
N         5.98940507755640    1.57155737104113    2.42015314848013
N         6.44410597980438    4.45435600472075    2.70559202847225
N         8.24516343799534    3.95043415738711    4.96746124835026
O         6.49120264580791    2.35241730734950    6.81917086138870
O         4.81193462723880    0.87854073686478    4.88421510414162
O         3.99070183470990    3.40952323000515    3.58458439640770
O         5.69343173197486    4.95162643572739    5.54651968233850
O         3.80479126490049    2.83765588895052    6.53403909199694
C         7.59456129323094    0.08502514813843    3.60982539378481
C         7.19434077238984    0.75258177333067    2.29470508432586
C         5.89743078474378    2.48286214193679    1.27628190662195
C         6.76046202838931    3.73071097640841    1.47305556590797
C         7.54473209606003    5.36484710756752    3.03586759961729
C         8.68537927211260    4.64289152200166    3.75590549942695
C         9.24967009155158    2.95974956163390    5.36187365341510
C         9.11561173015507    1.66294061557046    4.56456644385270
C         7.34005555200859    1.45924402974138    7.12047601805586
C         7.64131255983179    0.42740510509807    5.99391840313839
C         4.62111571411100    0.08518645367021    3.91221450821852
C         4.80605206685804    0.70868508184304    2.49759228531503
C         3.94787916328459    4.24995232661650    2.64001369446251
C         5.18718168989691    5.19553140668086    2.54188755745069
C         6.67545188729295    5.68182346136045    5.86593813337397
C         8.02673988082566    4.91992405935710    6.04621882858268
O         7.91094178607556    1.32977677270486    8.19484341060211
O         4.30295942913676   -1.09380129110746    3.99091832997923
O         3.05930248869423    4.37649779453153    1.80744017460488
O         6.67127188279932    6.89410819840932    6.03405261016958
H         8.51059079353935   -0.50912327361916    3.44435829092106
H         6.80441245152470   -0.60574763850328    3.90083377389204
H         8.01202038706419    1.38900464143951    1.94675446427179
H         7.04621069091358   -0.03979471627170    1.53852131961289
H         6.20724374389370    1.98031870035154    0.34320274519060
H         4.86083260346375    2.79261401908164    1.15201835290983
H         6.62119448214907    4.38638993135750    0.59478935328443
H         7.81428577434141    3.44051242540897    1.50310909093606
H         7.94604679939327    5.84672020136335    2.12737941305973
H         7.16767959607685    6.15360850063939    3.68561734056313
H         9.46433451293854    5.38810896595413    3.99874531395517
H         9.13273791212497    3.90864656324932    3.08050448373344
H         9.12101094927726    2.73006526139174    6.41890387473183
H        10.27159699463334    3.35623585953152    5.23037485779964
H         9.89095111412848    0.95907735279416    4.91895362073088
H         9.31350302397933    1.86394138404083    3.50873110954979
H         8.53013778506523   -0.16459500442387    6.26452361194199
H         6.76955274160714   -0.23088727516585    5.97392358242456
H         4.83498277813781   -0.09386114337909    1.74353886580632
H         3.91170672202987    1.31588830736930    2.33965846363930
H         5.15971303325714    5.74510804066706    1.58778441702723
H         5.07706794974035    5.90090372321044    3.36848427235311
H         7.93328250976932    4.38506883625296    6.99381301499535
H         8.85457163436058    5.64278069058847    6.12007615773360
H         4.48682298403454    2.74109732650978    7.21912975727108
H         3.61851140065549    1.93829066548814    6.21718133156122

