66
CSD_code = LATKEX | q = 0 | S = 0 | Stoichiometry = C23H36N2O4Zn | MND = 4
Zn        0.63600376547621    7.80880058295558    6.17733214024323
O         2.07864596941477    6.59012052529640    7.01202440520950
O         2.61508620633833    8.04380296180792    5.48612911648121
O         0.83955639903277    9.15758914024899    7.71706049533800
O        -0.82476479608365    7.75763517621140    7.69314125762924
N        -0.44020668561971    6.12119326153632    5.20677976412601
N        -0.02060392950114    8.84811746599770    4.33402224487626
C        -0.35814069578993    5.05989551237329    6.22314814822577
H        -0.97021586084962    5.37334873836018    7.06856542885047
H         0.67601965956701    5.01320424351178    6.56480780360844
C        -0.75968818247569    3.66940375148523    5.73957809393273
H        -1.81059996551034    3.63457191438459    5.44498907025071
H        -0.62589494929477    2.96648411966523    6.56283807360692
C         0.12295674906573    3.28675700555294    4.55919813556146
H         1.16645032926697    3.25715522064501    4.88026960739026
H        -0.14228229602026    2.29894810728431    4.17581054300494
C        -0.05193832000936    4.33668791608255    3.46955930720366
H        -1.08215366708971    4.29711273512334    3.11438414796106
H         0.59977190721777    4.11538296514043    2.62177888065549
C         0.29221654702052    5.74314879892340    3.99153721041707
H         1.35471088056976    5.73643838127052    4.26618592193378
C         0.08804432941048    6.78715062406294    2.88380656519213
H         0.62768378859837    6.43154825912319    1.99832252223412
C         0.65371413358394    8.16733968010043    3.22028744848631
H         1.70930890185049    8.08621813865705    3.47756457846971
H         0.56651954921135    8.78943943891940    2.31405883259157
C        -1.46816556045999    8.88708061938996    4.10092901816534
H        -1.65044678935038    9.47794236760917    3.18157966110057
C        -2.03811240016462    7.48859283996154    3.83290589146089
H        -3.11868191388430    7.60436910473909    3.68656241480143
C        -1.84151734766463    6.46641734168935    4.95286792478813
H        -2.24469759109766    6.85588232573796    5.88790961987939
H        -2.41849521119935    5.57248310386370    4.68066147135161
C        -1.39343782647142    6.95016579476695    2.56170292309107
H        -1.84884258052272    6.00727538482791    2.26016760832369
H        -1.52246798225358    7.65349571838143    1.73565755499704
C         0.48883180602618   10.22728990531366    4.37070833639192
H         0.31879467138596   10.69658321147571    3.38702968501367
H         1.56226958837293   10.17579140947338    4.55399771694186
C        -0.17206032226796   11.07428332599736    5.44925642876843
H         0.20631175385989   12.09525018332640    5.37047766696653
H         0.10923279224836   10.68724430944423    6.42682976935550
C        -1.68875079224128   11.05545851199913    5.30461170297731
H        -2.15281139909767   11.57577485172731    6.14370180424434
H        -1.98315688142508   11.57153138338786    4.38546728969483
C        -2.16413725664478    9.60832165496858    5.25089977769058
H        -1.92526971766592    9.11212377408187    6.19020630567300
H        -3.24555963789093    9.56633622572551    5.10296332338489
C         2.94986246660437    7.20642283563615    6.35502523260670
C         4.39777831860469    6.92075098717169    6.58246456811307
C         5.35620354291157    7.74428784627009    5.78441179352876
H         6.38445734204793    7.49143013444035    6.03049716152146
H         5.18169538473937    8.80024568863020    5.98354393291945
H         5.18703142568302    7.58371127822057    4.72044689616868
C         4.75519041681211    5.98648045996018    7.45463960618730
H         5.78912202134720    5.75449291410508    7.65155766056938
H         4.00952114379655    5.43828447875837    8.00444477185642
C        -0.13617316227142    8.61972906120651    8.28940576898176
C        -0.51337881766178    9.03665598287217    9.67203251777470
C        -1.68236371728846    8.32487349089442   10.27255843095010
H        -1.88372975008222    8.68833108695035   11.27701925956940
H        -1.48096047062172    7.25551931981588   10.30605950472950
H        -2.56417209862860    8.46919746446833    9.65007179231131
C         0.18461101224028    9.98534199448468   10.28360555499182
H        -0.05168227089692   10.31505809980255   11.28194636097418
H         1.01995804369540   10.45089886375589    9.78989554770611

