46
CSD_code = LATMEY | q = 0 | S = 0 | Stoichiometry = C13H17BMoN10O2S2 | MND = 7
Mo        3.47266855850460    0.70506598407927    1.54813120677467
S         2.40378355705994    1.94988975369539    3.51955003228259
S         2.43285545566297   -0.92686130969364    3.23153974540433
C         2.13107431341859    0.42331794178002    4.23234877924949
N         1.71436198231962    0.29413200932367    5.48591609917223
C         1.50039815946076    1.45727075920558    6.32303901175892
C         0.07735482316879    1.98882030156610    6.18272873800316
C         1.53332282672355   -1.01779395600477    6.07595599935089
C         2.84253499025823   -1.54969968261629    6.65104453749595
C         5.02672008031235    1.44810023997077    2.44841178366888
O         5.86683874071883    2.06025545608262    2.98495068138466
C         5.03273740226542   -0.19009983001441    2.28443826998709
O         5.87530540863580   -0.89147304850784    2.69290018656503
N         3.83127858542361    2.27241908771837    0.12412835827301
C         4.44789413464771    3.43671536712139    0.23145532408254
N         4.42998881189064    4.13407668093072   -0.90732298239844
C         3.76922955577926    3.35751723500948   -1.74004090179966
N         3.39258359042737    2.22063765488263   -1.14441643180374
N         1.58321225839936    0.78382003334358    0.65348499910676
C         0.36933542724505    0.71955744454150    1.17653313114239
N        -0.59490979889921    0.80862019814913    0.26055734662353
C         0.06657601892269    0.93218519800462   -0.87348521052365
N         1.38407451937690    0.92037351963573   -0.66796517821546
N         3.85052749031701   -0.53223074325939   -0.16707005707233
C         4.48796212352598   -1.68225316630459   -0.30315019272254
N         4.48379121103104   -2.12570630805427   -1.56280866199314
C         3.80987208173292   -1.20362382964044   -2.21749285071609
N         3.41206096362579   -0.22349977520401   -1.39871650956853
B         2.57013515211902    1.02975763811266   -1.63513656828699
H         1.70079752710698    1.16969959171581    7.35690757807493
H         2.21147843655218    2.23294725035018    6.02632842300382
H        -0.09935788374615    2.30922679761430    5.15948756562680
H        -0.64858547421467    1.22125641074726    6.44136038633295
H        -0.06376848809377    2.84041696938593    6.84157663129007
H         0.77516505127745   -0.93283801737058    6.85700136297647
H         1.16922963808109   -1.69799092712799    5.30211997254776
H         3.58300163397566   -1.64262528160872    5.86053259779971
H         3.22984254633640   -0.87946930742155    7.41495092575878
H         2.68134553773184   -2.52874024758786    7.09228883554066
H         4.90801131350413    3.78456935031606    1.13609472528790
H         3.54978934465445    3.59269315499756   -2.76099049146307
H         0.17081713803696    0.60620862037493    2.22688032407615
H        -0.38262419603676    1.03011693740223   -1.84026330616003
H         4.95313213695535   -2.20382309276327    0.51092103043981
H         3.59600519510928   -1.22329846853685   -3.26614059738534
H         2.22625211867842    1.14365940564136   -2.75716464897852

