47
CSD_code = LATNEZ | q = 0 | S = 0 | Stoichiometry = C20H18N4NiO2S2 | MND = 6
Ni        6.04554126281367   11.37197489862695    3.30734110949239
S         4.99907181696647   15.60882296710142    3.19208478550025
S         3.15481867599561    8.19026051929602    3.45159645052764
O         6.14530114475782   10.37031303301099    1.20670466467537
O         7.03118749337297   12.19685736055296    5.27488766468134
N         5.15937061214511   12.87995379595569    2.83082615332782
N         4.46689765513905   10.58545855936680    3.84876208090558
N         7.77813822549357   12.22828941699180    2.50905660229091
N         6.94976288026264    9.74573702036214    3.86335926813171
C         6.88183342979601   11.28866952329820    0.42450558910008
C         8.13639209853269   11.70132725078462    1.21212361800820
C         7.37343073099284    9.86219740841320    5.24238992725935
C         8.03024740787493   11.21681645510048    5.50151594837894
C         8.30474133364222   13.33544907610231    2.86216612285451
C         8.09914283025790   14.04560705234161    4.10502401926528
C         7.45790571824419   13.50562986754102    5.23431779566223
C         7.18965330001934   14.30841558869010    6.33335426249297
C         7.56141967985164   15.64038713362184    6.34018085649453
C         8.23094310008984   16.17654702994898    5.25075652946859
C         8.49631663461860   15.38764495270208    4.15234126584958
C         6.95836374018922    8.57712368859188    3.34751407575026
C         6.58356811724124    8.16310245115650    2.01343139040662
C         6.24945620319441    9.03690194078515    0.95945922880823
C         5.96075077474265    8.52368462580647   -0.30106600523309
C         5.97408302047468    7.16154903210668   -0.52950678842432
C         6.28051141599927    6.28785505279644    0.50372323575465
C         6.58278066796605    6.78591904638484    1.75151187821108
C         3.92347469417379    9.56241868570393    3.61926693203841
C         5.10493958321728   14.03596056467640    3.05936922915702
H         6.23709085837826   12.16059353232822    0.27428392149028
H         7.17329683981488   10.86258456483951   -0.54113490060678
H         8.71434162126811   12.42870187626429    0.62394389185591
H         8.75036210773591   10.80512785410721    1.37304057569140
H         6.47610623990207    9.81002917752355    5.87235544616989
H         8.05889786318325    9.05205115479677    5.52496161877713
H         8.89211196327654   11.36445509046038    4.83546008459001
H         8.37650089846057   11.27054123075657    6.54418126455039
H         8.96905240960557   13.85539859458157    2.15941286217498
H         6.66265100094266   13.87354705680488    7.16872019260653
H         7.32978227042365   16.25904145184267    7.19340660110403
H         8.52670899720082   17.21403564676345    5.25255683156533
H         8.98692898488025   15.81639054695329    3.29052849485596
H         7.30332661868339    7.74245241657654    3.96975306054123
H         5.68763138259137    9.20343614183024   -1.09456035250040
H         5.72947614308140    6.78038059412747   -1.50915532100894
H         6.27734095868241    5.22278362064030    0.33259935270083
H         6.81644859382062    6.10387545098418    2.55594848460371

