85
CSD_code = LATNUP | q = 0 | S = 0 | Stoichiometry = C41H39ClCuP3 | MND = 4
Cu       18.79751038661294    0.56382770038468    0.42462817249582
Cl       18.23263320238001   -0.13901191839692    2.37055121395419
P        19.33842297041258   -0.00512536215571   -1.70286429632104
C        20.60477254082653   -1.32140615832639   -1.73158649978394
C        20.84828715937496   -1.94486177276026   -0.51118356099748
C        21.76366882280337   -2.97619798990003   -0.42158759998899
C        22.44923723754368   -3.38558192791164   -1.55299456410876
C        22.19460286234791   -2.78348264058453   -2.77470288791525
C        21.26682495855702   -1.76199376632062   -2.87117922524616
C        18.06178567718920   -0.90191206076668   -2.66593575925087
C        17.64645658962710   -0.68064812456853   -3.97238359490581
C        16.61431942584482   -1.43615633659719   -4.50398290582889
C        15.99086846320506   -2.41091519765545   -3.74518654142104
C        16.39736484261243   -2.63470294212843   -2.43830470159622
C        17.41982140903916   -1.87857037980470   -1.90374920399728
C        19.87289867923394    1.23165824494435   -2.96755734933959
P        19.00937744572136    2.78443515366583   -0.44257654535346
C        17.42119782139854    2.86016641997406   -1.36701078776310
C        16.57133800686012    1.76062024004639   -1.33557625949846
C        15.37969125483737    1.77062459051386   -2.03874598887177
C        15.01817122662285    2.89089254851659   -2.76659972898581
C        15.83707910186204    4.00970620681003   -2.76470903036991
C        17.02963535084597    3.99877001533841   -2.06636190254159
C        18.73324300349628    4.26095696117361    0.58897533453907
C        19.34697448427694    5.50160289018544    0.48449449399957
C        19.05729254573958    6.49005170053084    1.40988953375886
C        18.16202170723080    6.25140339442904    2.43762349878209
C        17.54780617027729    5.01295573315551    2.54773100620142
C        17.83796350512550    4.02291764657872    1.63222449948887
C        20.18201497360976    3.41403148650204   -1.72837917931445
P        21.42578056028612    1.12495734693740   -0.07922709112976
C        21.71199269707697    2.55072305374978    1.04059553844577
C        20.84903231995622    2.63975468139043    2.13003412514693
C        20.99037600267297    3.65664568492836    3.05599592456243
C        21.98842866320885    4.60194326864485    2.89408131406777
C        22.86293423201343    4.50698620398745    1.82375148866858
C        22.73700359592505    3.47983663302660    0.90605864462375
C        22.85039238021575    0.13706338756132    0.50210647166942
C        23.99674742444050   -0.18506248304579   -0.21119065345075
C        24.95235580881863   -1.01069050829120    0.35675174598004
C        24.77429380625684   -1.52060947411704    1.63042784479146
C        23.63041236371651   -1.20379950672759    2.34719641234673
C        22.67359592997832   -0.38532669847732    1.78359300240076
C        22.01318969816939    1.69124097870656   -1.73004325563464
C        20.87098082303018    2.30978112937047   -2.53718682285100
C        21.45948433817088    2.94606489847221   -3.80596971116469
H        20.30478258887348   -1.60672249354730    0.36666892330583
H        21.94942761524829   -3.45148357339638    0.52967108148849
H        23.17752444751508   -4.18013248998632   -1.48637799500293
H        22.71797122916733   -3.11595534586735   -3.65998620155741
H        21.05820262609900   -1.32002038977782   -3.83646844696404
H        18.11252967995875    0.07379902202677   -4.58864539679397
H        16.29429099374354   -1.25804493624983   -5.52087386005879
H        15.18495688933591   -2.99178025957384   -4.16891823887115
H        15.90954684910788   -3.38895724759243   -1.83881426458879
H        17.73587733135116   -2.02187397674689   -0.87528258488624
H        18.94517991356105    1.71827227120158   -3.29582510995425
H        20.28293318134198    0.66767643783799   -3.81362719241954
H        16.84275791438169    0.89518313157923   -0.73753552726866
H        14.73689524907140    0.90320692927961   -2.01559686270584
H        14.09220620445214    2.90122720737140   -3.32224649603587
H        15.54130298132514    4.89636585689709   -3.30705409986007
H        17.64872809511610    4.88622147371952   -2.04937714067966
H        20.04993575810752    5.71338307338628   -0.30786074345299
H        19.53791062226259    7.45451010629349    1.32612696493123
H        17.94638586606025    7.02851879644867    3.15610895687675
H        16.85405845885093    4.82001641455525    3.35254437377578
H        17.38896648779515    3.03928130539074    1.71817902367590
H        20.94903426348737    3.98576897949766   -1.19520031640056
H        19.63956264358507    4.08670621972597   -2.40077712777111
H        20.06288963857797    1.90030571035525    2.24891546509142
H        20.31446560926463    3.71560152192990    3.89569153953379
H        22.09242581426034    5.40856964286330    3.60473342660529
H        23.65421139226087    5.23418105805827    1.70636508872774
H        23.44768774883438    3.40550255119068    0.09381787787930
H        24.16099039908390    0.19842589481753   -1.20721265680119
H        25.84324328631000   -1.25726018382054   -0.20352446833280
H        25.52411479568324   -2.16642413389574    2.06343168360533
H        23.48373236730428   -1.60296863216678    3.34003633440883
H        21.76671466849189   -0.14667842279517    2.32600715492394
H        22.36702628797891    0.79348807138087   -2.24932224384110
H        22.84553099555780    2.39457846336507   -1.63531602577247
H        20.66691432219054    3.30804521489613   -4.45892791439010
H        22.05543075012039    2.22201031192878   -4.35918206330978
H        22.10047156480301    3.78749346841632   -3.54847953534385

