54
CSD_code = LATTUW | q = 0 | S = 0 | Stoichiometry = C24H24AsCl2NOPt | MND = 4
Pt        8.35712942178327   -3.16707849839195   -0.05076456658722
As        7.20364817690225   -2.38789293643273   -1.95075278870214
Cl        7.29072720872709   -1.59399162817579    1.15675818766306
Cl        9.62718738378897   -3.78059591936629    1.73393383688365
C         8.52873534444830   -2.46863168726530   -3.37641102354389
C         8.52914329253210   -1.49736686712395   -4.37089178773828
H         7.78473293270082   -0.70830411359478   -4.32964621906964
C         9.45321950218893   -1.51721906468265   -5.40126572333161
H         9.43365528343095   -0.74819853321110   -6.15928307026288
C        10.39775152749305   -2.52983379848943   -5.45643452370131
H        11.12114522874521   -2.55591623200267   -6.25704847995672
C        10.41456827713764   -3.50728389287370   -4.48176400976134
H        11.14766277777946   -4.29844305981895   -4.51589045932830
C         9.49629234270881   -3.48538005207567   -3.42817404252542
C         9.58252872020305   -4.56688888166251   -2.44889295662564
C        10.16770506536787   -6.62723256068640   -1.78995104865260
H        11.21571240558441   -6.83482706442339   -1.55580287618086
H         9.67790922077107   -7.55445939200855   -2.09248306793937
C         9.44514809150753   -5.89001548968011   -0.64770668388044
H        10.07524821775628   -5.77644298062875    0.24175675719307
C         8.09793903426387   -6.48738227650052   -0.19357232606439
H         7.66236760992986   -5.73851367259304    0.48700251759077
C         8.32782138462733   -7.77598107330776    0.58741925197676
H         7.37923060786863   -8.17085901020778    0.94140366617921
H         8.96273246501911   -7.58522706083205    1.44822717897595
H         8.80319462889694   -8.53169629916240   -0.03499316984332
C         7.12820445747791   -6.69993585186980   -1.35413864254543
H         7.01195794921529   -5.78418721189659   -1.93762110212212
H         6.14977680335697   -6.97598402312698   -0.96954533029244
H         7.46385018024882   -7.49529741728227   -2.01687997155588
C         5.70915656447865   -3.37550081556522   -2.71392072035671
C         5.54649223662339   -3.58109066981491   -4.07748486058713
H         6.27852098113532   -3.18513253434218   -4.77333624842528
C         4.45294373050876   -4.29283468494684   -4.54233528175594
H         4.32778385422915   -4.45282450987652   -5.60347660292926
C         3.52141640425786   -4.79851141048434   -3.65041986661904
H         2.67079136377837   -5.35283134122781   -4.01820197616999
C         3.67994393406958   -4.59676239263282   -2.28816087410124
H         2.95369242588158   -4.99360399449990   -1.59418823356214
C         4.77329142045882   -3.88955576129139   -1.82054666871644
H         4.92610767202273   -3.72946918552797   -0.75536890935453
C         6.60575190644701   -0.55107199306006   -2.04345972074750
C         5.31352642997217   -0.19355352159329   -2.40426560856060
H         4.59763717046286   -0.96269986124057   -2.67721581823176
C         4.94327933427100    1.14165366159880   -2.40794879787179
H         3.93708027895212    1.41929272839549   -2.68688912450484
C         5.85686105566235    2.11709896972435   -2.04682302339381
H         5.56250436018181    3.15614536225800   -2.04551435637860
C         7.14475597746898    1.76254161588821   -1.67482662037553
H         7.85221794465124    2.52377273894049   -1.38088181452901
C         7.51683971285595    0.43168689036794   -1.66844614706517
H         8.51440417745352    0.13419336880768   -1.35623383506873
N         9.22571864314065   -4.57017492988923   -1.21347379200713
O        10.12345687857335   -5.71850118061801   -2.88926862493954

