31
CSD_code = LATVEH | q = 0 | S = 0 | Stoichiometry = C15H11CoN2S2 | MND = 7
Co        7.83691895607232    1.00230176137057   14.36801754636567
S         8.62961773286444    2.80873946080213   15.19399679431261
S         9.78437170655164    0.17444516474085   14.25708091107423
N        14.49491370077382    1.52045744802139   15.61577213484582
N        12.62395463382956   -0.04814378407036   14.26527076781437
C        10.30688958598446    2.55845767421720   15.29859694653544
C        10.85317262198815    1.38059660355077   14.88489361543967
C        12.26417277058919    1.04095098499823   14.91098561050022
C        13.23148221679590    1.82405812627234   15.60376857370632
C        14.88398716575791    0.41201829270551   14.94464942067980
C        16.24047360013280    0.04102848029519   14.91854946061563
C        16.62028586838833   -1.08816210058881   14.24571533620132
C        15.67155159090974   -1.88414630810833   13.58015828965692
C        14.34624086002052   -1.54924768944379   13.58556671359088
C        13.92278999148509   -0.38991270965291   14.26694102345455
C         6.38372166506109   -0.42151328852134   14.79762161807597
C         6.75801444413857   -0.51960318770044   13.43800636586391
C         6.48267044582142    0.72353582289886   12.81576306218550
C         5.91527582068084    1.58476304566608   13.79136055415609
C         5.85902608248623    0.88265792214130   15.01470279432377
H        10.88060092472656    3.38420837072552   15.68908207767281
H        12.94515431086078    2.70431792836520   16.16270617941787
H        16.95170164943245    0.66480766542488   15.43721451104326
H        17.66006995647442   -1.37949320274224   14.22125017196210
H        16.00321934940914   -2.77035485556336   13.05918346433936
H        13.60055323934922   -2.14369635760962   13.08152616265492
H         6.38454862343821   -1.22884435289790   15.51251180853029
H         7.11307616383750   -1.40883904875862   12.94363197483020
H         6.56925523392870    0.93470119482363   11.76158201667010
H         5.51368438661485    2.56839869441624   13.60919519338041
H         5.39870470159616    1.23501224422250   15.92379890009968

