53
CSD_code = LATVUY | q = 1 | S = 0 | Stoichiometry = C26H19ClN5ORu(1+) | MND = 6
Ru        2.61123656918308    1.88320039297047    2.81016938282675
Cl        1.58699237206326    0.77360937105964    1.00655667010585
N         3.39496194449976    2.91664439052582    4.34499847938641
N         1.70057866579684    0.67624263284287    4.15317487265279
N         4.28705375099427    0.81158819586220    2.50483029869810
N         3.37607736733613    2.94247302859829    1.43376318984827
N         1.10485976037795    3.26995572803709    2.59979999550882
C         4.58729732660092    3.51512186371231    4.20639895798062
C         5.10246695697486    4.41882074251992    5.11179395324470
C         4.35270299438729    4.75575353969076    6.23393570982306
C         3.13512808522077    4.13039967331134    6.40038658484936
C         2.68852409923234    3.20237898785039    5.45516521575747
C         1.41351618957423    2.51277615317784    5.79468459685073
C         1.16994502491649    1.12638103446967    5.30441667222765
C         0.37001108441460    0.32417893768259    6.12157485456487
C         0.11484601295603   -0.98341077395506    5.75871735528960
C         0.67538684967582   -1.44852949034944    4.57644913862303
C         1.45126397214608   -0.59454100464613    3.81419143943321
C         4.71123091228024   -0.28597569081221    3.12804312240068
C         5.83079989571742   -0.99554558518003    2.73562202455300
C         6.55803076341742   -0.54889857684614    1.63972057833155
C         6.13993738176007    0.59977781790424    0.99540707337625
C         5.00116002223385    1.26751101506067    1.44300844519511
C         4.47903944569913    2.48490480856114    0.82234103329108
C         4.98416066175030    3.14226268130583   -0.29805401542834
C         4.31617745476777    4.26052339806644   -0.77036402420792
C         3.14397247894478    4.68175408537954   -0.15605619096332
C         2.68070347130131    3.98226769959192    0.95379384593551
C         1.40617048055812    4.19027013909721    1.65172171063338
C         0.51713797383755    5.21166784215854    1.32876432962755
C        -0.70983283785295    5.27936427276802    1.96551857389564
C        -1.02524206449353    4.30470087186370    2.89843082037367
C        -0.08844791347776    3.32319085662523    3.17830908990849
O         0.63507470491405    3.02849244404419    6.57395639155273
H        -0.32482382168606    2.54242625129264    3.88886219199779
H         2.50309077049364    4.32849007375915    7.25232297830703
H        -1.97808254299653    4.29539000909215    3.40103518293521
H         6.68443816082224    0.97619261046833    0.14531460201859
H         7.43015540606881   -1.08357481370024    1.29932888564033
H         4.68915100955939    4.78645540589615   -1.63443478365216
H        -1.40937401356843    6.06399016831780    1.72487369408303
H         6.07153066720691    4.85754318062454    4.93693372138311
H         1.87129853547070   -0.93079914167663    2.87382883524350
H         0.50851318564815   -2.45889359722504    4.23990597566555
H         0.78099726872611    5.93991185284525    0.57985831638076
H        -0.03653567932069    0.75694773810478    7.02253701270091
H         5.86560899203894    2.78254707442679   -0.80165377276795
H         6.12336053487422   -1.88145494369437    3.27484056938369
H        -0.50364918202273   -1.61831226474051    6.37244056821775
H         4.12990220514208   -0.60909639285405    3.98364613481545
H         2.59751152728719    5.52068008370262   -0.55254636076286
H         5.16248017160814    3.25567760612677    3.32499854871761
H         4.71410494693673    5.47346761628363    6.95213752354714

