49
CSD_code = LATZOX | q = 0 | S = 0 | Stoichiometry = C21H19N2O6V | MND = 5
V         2.61909297213619    2.12490168507536    3.43083974647522
O         2.79975962576501    1.18785479606958    2.02064858121547
O         1.55845971984467   -0.38552563597412    0.33906780699406
O         3.34532036698661    3.64839198855339    4.25837892721299
O         7.19629306085757    3.55409113967207    5.94107984488649
H         6.75916270283976    2.91183202873799    5.34114291200367
O         2.30624806056484    1.19869392032269    4.60502202578121
O         1.35697310929034    3.03639386825322    2.99320943821609
N         4.62619622969143    1.69069820568388    3.62854407089242
N         5.28282385229213    2.52665573503679    4.44426975798755
C         4.58844543368157   -0.31579528317004    2.34480141933441
C         3.36065680012946    0.04694337547950    1.74592159872137
C         2.74333202598758   -0.84080130476841    0.82133256209485
C         3.35501597470714   -2.04415519219991    0.52700650862622
H         2.90267786901220   -2.74053171111387   -0.16100687528618
C         4.57079337714861   -2.38754139618275    1.12202983189625
H         5.02362635278939   -3.33424391285531    0.87084115786124
C         5.18575259796173   -1.54288782457284    2.00994212413740
H         6.12513833986888   -1.81168265190768    2.46798414150818
C         5.20607782423623    0.60178223528433    3.24736373448399
H         6.20430039220863    0.37654006207696    3.62793454315274
C         4.50958476438044    3.54092060531272    4.77658709318018
C         4.99727882508465    4.55687981351737    5.71403846896508
C         4.13998362279363    5.57520260093723    6.08106352719051
H         3.13945420149245    5.57824689721024    5.67050830449120
C         4.53065876354258    6.58835467757449    6.96688133175824
C         3.66073345461235    7.63298345886229    7.35026340628482
H         2.65839014574726    7.64568541153754    6.94687356487875
C         4.07845535074607    8.60518660500141    8.21322678133988
H         3.41042381304125    9.40218176520672    8.50472533341697
C         5.38484338257171    8.57729193613132    8.73170846762480
H         5.69787428646518    9.35525841252548    9.41272705541532
C         6.25028956802757    7.57987633224977    8.38183709206836
H         7.25402377405220    7.55668665661482    8.78043570118195
C         5.85201336207577    6.55762094555177    7.49316376434537
C         6.71439021626693    5.51533906067212    7.11792895409368
H         7.71701545172852    5.47952015417746    7.51549798218210
C         6.31817831464704    4.52005630816999    6.25182181796949
C         0.84906174888564   -1.15133037662622   -0.61423021186190
H        -0.16356536357569   -0.73940534342051   -0.59145744995711
H         0.80100466564247   -2.20261471788218   -0.30521036963662
C         1.42785350582743   -1.02114813697147   -2.02045109281200
H         1.43566640100273    0.02399973792170   -2.31893801232159
H         0.81709174234698   -1.58377793842705   -2.72115009927056
H         2.44759489759901   -1.39611107015237   -2.05980117508033
C         0.23801190486801    3.79671553431916    3.12845261293236
H        -0.55336734495027    3.22747473623993    3.63919530338871
H        -0.12567683652598    4.13028643858316    2.14541251569927
H         0.48258669360387    4.68620536766361    3.73333547433804

