62
CSD_code = LAVCOB | q = 0 | S = 0 | Stoichiometry = C25H24Cl2F6O3PRh | MND = 8
Rh        2.73680490075979   15.34409409298369    2.24886669184133
Cl        2.12374046313573   13.95566278830344    0.45183484184563
Cl        1.49282732148362   14.04639649456604    3.71765723057304
P         4.17452100900947   13.62998731737758    2.29780632286608
O         3.80476163442593   12.10063538083935    2.60976262437727
O         5.43636212837716   13.71475417074776    3.33016826720855
O         5.10341152424373   13.51921797119119    0.95092428073290
F         3.65590482388471    9.35086693887272    2.93766248298427
F         1.50883042927429    9.42379483370257    2.90509902362042
F         2.60092344598831   10.46773712624818    4.43366102515664
F         6.08561582660434    9.36159646039543   -1.01045389710913
F         5.16349237937052    9.38007623340101   -2.95232315565713
F         5.89171812170592   11.20639954767539   -2.08768727252481
C         2.64311222411801   11.39526604388495    2.23129463741372
H         1.74606615199063   11.99244618758753    2.45056684094468
C         2.60656622490116   10.15779094500679    3.13898964637652
C         2.67433719515905   10.96020636320459    0.78767140486328
C         1.49427051074007   10.84693068628486    0.06360796737498
H         0.55351877964011   11.07555287739569    0.53879353401215
C         1.53132193029722   10.46424740288539   -1.26463647718342
H         0.61377560998385   10.38473246001490   -1.82556557224834
C         2.74062868860842   10.20119975383062   -1.88574632254741
H         2.77557995396787    9.91840927792449   -2.92652012867400
C         3.91385307438622   10.30238368710751   -1.15319386070051
C         3.88771164662785   10.67090750878825    0.18460735099412
H         4.80794821789841   10.73081371561194    0.74583432987362
C         5.24719229540329   10.05552632983584   -1.79780614021678
C         6.60862390969491   13.40282289177912    2.67504053946628
C         6.41404248280109   13.29035725231045    1.29978166503169
C         7.45390293661572   12.99430445868820    0.44826226735268
H         7.28522877184454   12.89397196043508   -0.61099492158108
C         8.71297348142400   12.82105747039960    1.01503299087378
H         9.54665760829774   12.58451518630457    0.37317463991502
C         8.90869327712188   12.94055982047499    2.37944084953712
H         9.89455002318695   12.79912442830891    2.79349177599911
C         7.85272833358552   13.23409822036700    3.23730397416126
H         7.99214388128897   13.31778463129392    4.30229466478036
C         4.11303737436559   17.07217777557542    2.35274825712426
C         3.18920428503107   17.07790838959211    3.45036493612840
C         1.85610844751389   17.24860485106333    2.91156666051912
C         1.95348935521988   17.25216006892861    1.49866303597777
C         3.35353751471894   17.11556752727286    1.14599459841741
C         5.60290234724495   17.09620608770222    2.46325655216365
H         5.94041945272790   18.13244172455109    2.52590226977401
H         6.07315797989753   16.63704254615194    1.59572243184115
H         5.94025661349757   16.57392422515580    3.35605875964994
C         3.53194970965786   17.15997808742442    4.90232388331302
H         3.60406334654347   18.20701888094662    5.20340768033203
H         4.48269577534793   16.67435934501286    5.10926010933401
H         2.76145813783750   16.68165833777021    5.50278626332092
C         0.64097363271999   17.47190251472890    3.75067605639018
H         0.80333534058432   18.33038450988604    4.40271629063359
H         0.43996150919319   16.60158526818954    4.37576335870164
H        -0.23381315073710   17.65645981177977    3.13331904876717
C         0.86322589688340   17.48159846630923    0.50303695245620
H         1.00321058261945   18.45344167307081    0.02760099556331
H        -0.11401027731576   17.45731656425982    0.97707587158835
H         0.88550530374774   16.71583762053531   -0.27116423343989
C         3.88320514349703   17.21690736101324   -0.24641685352683
H         3.87725796488614   18.26119192699706   -0.56436444754280
H         3.26113230673530   16.64663292129762   -0.93352927669507
H         4.90099418961703   16.83996459866145   -0.30997332224704

