85
CSD_code = LAVFEU | q = 0 | S = 0 | Stoichiometry = C41H38O2OsP2Si | MND = 6
Os        3.01226167922619    3.40958874614100    2.51974340661733
Si        4.30200847245735    5.02927827501821    1.15872703950253
P         1.54903249020990    5.12827587649725    3.33672830889826
P         1.65248278230807    1.72652805691753    3.64503938991259
O         4.16300169556565    1.18636630793767    0.81248973309884
O         5.22807994116728    3.36489129234219    4.63101097974413
C         3.77274251608834    2.05560410763855    1.46157866779409
C         4.36980764097691    3.36356312750692    3.85749011107358
C         3.36369761658623    6.58691556100900    0.49926256641711
H         4.06296632197497    7.26823603866441    0.02494491571791
H         2.85599044755875    7.13515262202018    1.28683472496232
H         2.61848494728145    6.30843956272452   -0.23873557843131
C         4.95638035336496    4.25464413311538   -0.48833761741762
H         5.43007659069351    5.01504683762818   -1.10107856031025
H         4.15280231019988    3.81607524832669   -1.07097402449789
H         5.69015071200914    3.47741909719321   -0.30068258166951
C         5.90914299287342    5.78051104620359    1.94356073444630
H         6.55527944137541    6.14985548561430    1.15396524215404
H         6.47230004675764    5.04371328584311    2.50781016547119
H         5.69321837576562    6.61418746221876    2.60317735531678
C         0.76389642434583    4.95537046045162    1.71234549141205
C         1.47880102463938    3.88974700658994    1.11687506497553
C         1.06195990541518    3.52429515370719   -0.16411287447502
H         1.57329588554946    2.72948547943285   -0.69615632649971
C         0.00156505341765    4.16604732177048   -0.78538629529963
H        -0.29790637162938    3.86159624900692   -1.77965260333057
C        -0.67802933389529    5.19925961121692   -0.15917039774500
H        -1.49952121874471    5.69072877115107   -0.66151779997856
C        -0.29878684115036    5.60683102239180    1.10815394123744
H        -0.82286225062198    6.41486109832251    1.60133472850704
C         0.16595476895122    5.00323081823611    4.52972288402071
C         0.38186093646220    5.39705826001744    5.84955254004423
H         1.35000998728461    5.78386307621031    6.14096307770467
C        -0.63647838201426    5.31273881831240    6.77773359492345
H        -0.46074525648475    5.61615392575619    7.79958533031260
C        -1.88591811864695    4.84875208908995    6.39604042433941
H        -2.68518456650414    4.79143129702368    7.12029667496552
C        -2.10922912972128    4.46858009457822    5.08447587122961
H        -3.08450107790626    4.11824361013341    4.77925153527673
C        -1.08645433031815    4.53371042555104    4.15412546641012
H        -1.26520068118203    4.22911283952160    3.13214596363588
C         1.99610452646662    6.85996297902025    3.69757164127863
C         1.06912862325870    7.89136714290588    3.59388608762053
H         0.05916198209011    7.67730648406831    3.27463920720694
C         1.44433732063368    9.18535798364943    3.90157729347424
H         0.72809771536773    9.98902207562558    3.81016914840375
C         2.73507412876204    9.45349644409217    4.33075187574966
H         3.02257821469864   10.46660854950011    4.57014378263716
C         3.65350205548398    8.42470055310319    4.45710859874983
H         4.65648149767709    8.63270358750973    4.80009407510225
C         3.28534963128417    7.12958386415738    4.14100355951382
H         3.99335447472150    6.31490535689549    4.22577798707373
C         1.63924085609651    1.68857957652419    5.47160760560871
C         2.12118524240794    2.76568023313524    6.20122761006148
H         2.50930433210797    3.63215540635901    5.68014190542583
C         2.12022777633966    2.73166708805054    7.58436808216643
H         2.49732775426076    3.57498001761681    8.14394956415068
C         1.64302791605998    1.61466170549885    8.24691550041303
H         1.64249089109899    1.58460266046146    9.32646278613372
C         1.17496306885422    0.52749525223791    7.52426303862562
H         0.81267850495089   -0.34931187621217    8.04104550492149
C         1.17449647750282    0.55922696513678    6.14342896038747
H         0.81767897867986   -0.29147476688278    5.57805046067123
C         2.33448291884218    0.05122826114148    3.36574694227196
C         1.62601753057654   -1.00885935998683    2.81536017991649
H         0.59540206126484   -0.88154554168730    2.51564869645208
C         2.24215676834301   -2.23740237717375    2.64518851629617
H         1.68618774034338   -3.05577449954426    2.21110816866756
C         3.55985115869735   -2.41939679524146    3.02562531941740
H         4.03543460016266   -3.37884624772092    2.88706259126401
C         4.26921727879586   -1.36635370918016    3.58229869042555
H         5.29822003465185   -1.50248010282757    3.88040336781277
C         3.66122191203260   -0.13851851738250    3.74878360176660
H         4.21434261344942    0.68996474270523    4.17496691317145
C        -0.10394129494734    1.48640891177789    3.22611770631840
C        -0.39267045419095    1.33799229005653    1.86967817837424
H         0.42004504609785    1.33850450905695    1.15521014822489
C        -1.69863045422468    1.19513038418776    1.44460778339881
H        -1.91342105254849    1.08691498089347    0.39169760088404
C        -2.72965172442937    1.19267233232896    2.37156798175005
H        -3.75211208696348    1.07894954327458    2.04252489947236
C        -2.44752746827868    1.33870173359651    3.71911560153999
H        -3.24962650736958    1.33388422325345    4.44308361848451
C        -1.14156372961412    1.49791832887172    4.15029073941658
H        -0.93596066115403    1.63324002809451    5.20256720881605

