106
CSD_code = LAVFAQ | q = 0 | S = 0 | Stoichiometry = C51H46N3OOsP3Si | MND = 6
Os        0.35204705165836    4.47504850517804    2.95336864944255
P        -0.02434719386398    6.07039747076173    4.61832381207465
P         1.62421425390891    5.78407093323049    1.52210411757903
P        -0.35192498532587    2.74508266991287    4.43300561743407
Si        0.92327434839315    2.84571544772795    1.23100857694682
O        -2.19126319231512    5.25515521552434    1.45851537183636
N        -0.47994416400520    7.65800267092753    4.11888377571065
N         1.06352084211871    6.55490685039668    5.84304671263744
N        -1.41659302764792    5.75073867784433    5.58296488033472
C        -1.24394292938190    4.99074789513375    2.06911058460955
C         1.37228610225527    1.01011293382994    1.62307124492952
H         0.58576482041499    0.51994542094523    2.18319421036881
H         2.28747493837581    0.93362605391536    2.20000522169676
H         1.50349003837149    0.45470426892572    0.70141667550868
C        -0.21274312909041    2.68000330432712   -0.33112563530161
H        -0.64901633442555    3.62930392543990   -0.62660779134087
H        -1.02163196841613    1.98332564061225   -0.14016613250332
H         0.35888708824150    2.29935469416377   -1.17145072447459
C        -1.72755885470900    7.97693695680286    3.63621216477065
H        -2.54331265997873    7.28281347093725    3.69834766009903
C        -1.70060262157188    9.24726434637843    3.14720918650325
H        -2.52823024780885    9.78293819156556    2.72555319712870
C        -0.37982945239860    9.72877847079296    3.30755839287375
H        -0.01441834752322   10.69758097324772    3.02858744327018
C         0.34494900003811    8.73311259772835    3.88796598927852
H         1.37544022092801    8.71740994927048    4.18189655939938
C         2.15582128906662    5.81207874004152    6.22875536206141
H         2.39420577228758    4.88710124890488    5.73805818114140
C         2.79703242777992    6.45486539826736    7.23969491464991
H         3.68136766366763    6.12202369849776    7.74679897893066
C         2.07809768325405    7.64767010017743    7.49688282975044
H         2.31752697614519    8.38791027986950    8.23531450447150
C         1.02769059928676    7.68397431503742    6.63456414073907
H         0.26368983442783    8.42781030232891    6.51701077061514
C        -2.55369845621657    5.15018965436739    5.09548163619618
H        -2.59620765710910    4.76767773925930    4.09207973018666
C        -3.50793789537874    5.14512425768417    6.06475443087188
H        -4.50082134492837    4.74958930092021    5.97838756259051
C        -2.93986751798102    5.75187721506208    7.20753993103910
H        -3.41757005371653    5.89625007170646    8.15655837916059
C        -1.66783811804243    6.11159790950629    6.88617065086350
H        -0.91965220487838    6.57495292318545    7.49753982276694
C         2.90632446632958    4.81083103072110    0.69099075212869
C         2.59424411204041    3.46634837423659    0.49251606725559
C         3.50954923246339    2.68553433331213   -0.19635932220922
H         3.29097039283085    1.64245526555090   -0.36667418460424
C         4.70049242090471    3.22096620121498   -0.65889836329770
H         5.40624297199851    2.59394987443036   -1.18543387350516
C         4.99569975881542    4.55789551695197   -0.44521963882046
H         5.92740309799797    4.97327274053918   -0.80194862140303
C         4.09340458805829    5.36317479709495    0.22715102110372
H         4.31528465592791    6.40888187519827    0.39499926640753
C         2.55445219379326    7.24157356817412    2.10509459975338
C         3.24156503772574    7.10085083458631    3.30783656545670
H         3.17435446016151    6.16667731133551    3.84709423164010
C         3.99549955011154    8.14335813423387    3.81281830210872
H         4.51706549378258    8.02511654889229    4.75166340477329
C         4.06771876096829    9.33991227130095    3.11673836659387
H         4.64836305002121   10.16071976575066    3.51120289581198
C         3.39471740919835    9.48217713789385    1.91406001321795
H         3.45666297420335   10.41268374779782    1.36871211626550
C         2.64204470978839    8.43933634754076    1.40303784683395
H         2.12319870269374    8.55633311587332    0.46245819993923
C         0.70087128875769    6.44970417904578    0.09708031358660
C        -0.24623516080761    7.44177987369298    0.34358944652912
H        -0.36105919853909    7.82939122784259    1.34640804871924
C        -1.02913816692095    7.93064611648375   -0.68335129109248
H        -1.76021062872254    8.69946417656411   -0.48089876248462
C        -0.88004275314092    7.42692967922796   -1.96624926791504
H        -1.49648165322264    7.80310556433115   -2.76940468263052
C         0.05601158553333    6.43759558289453   -2.21583545847167
H         0.17075393370082    6.04142280133861   -3.21437566458697
C         0.84507331129120    5.94552043461161   -1.19026672080020
H         1.56946813750812    5.16868652334042   -1.38742138681629
C         1.42608212835359    2.45537193747811    4.63241258519997
C         2.02565554727439    3.46561037432510    3.84107311494341
C         3.42190988570501    3.44037508972599    3.80147598467532
H         3.96643125592028    4.15020037727613    3.18732049719116
C         4.14812197650555    2.50856629565483    4.52899705338541
H         5.22854386607341    2.51721336799317    4.47165709757158
C         3.51606696386661    1.56951131031436    5.32837339304122
H         4.10001012385164    0.86020049677138    5.89774072073424
C         2.13251856324065    1.53490149579456    5.38640455930741
H         1.62659238756304    0.80745045143680    6.00725520109506
C        -1.19029098852500    1.24030775970443    3.84064757078519
C        -1.03080512745432    0.01730588348177    4.48429616420497
H        -0.39521655737332   -0.05325529706529    5.35518263222274
C        -1.68486460536778   -1.10195115310752    4.00526111717265
H        -1.55208170919613   -2.05433902542517    4.49768436796547
C        -2.51119565564284   -1.00472674443240    2.89613778738992
H        -3.02072040025269   -1.88240207382950    2.52661654835236
C        -2.68419708469230    0.21495842066972    2.26306801751617
H        -3.33223797719255    0.29118305021535    1.40229141383438
C        -2.02327198093178    1.33574196888369    2.73210571804992
H        -2.13551331744344    2.29218202872493    2.23788828795752
C        -0.96796318692884    2.75950870868745    6.15580075785982
C        -2.23223753258047    2.26751594825207    6.46868712456247
H        -2.86988834079856    1.88495302117630    5.68374165218223
C        -2.67031986863165    2.26488975729930    7.77919689048766
H        -3.64931213209899    1.87397753467641    8.01502163837480
C        -1.86171540543327    2.76409521821319    8.78709526151394
H        -2.20684708622806    2.75860315340301    9.81034769323304
C        -0.61204355394415    3.27388363199705    8.47912348348472
H         0.02070416811459    3.67157292649535    9.25924725689591
C        -0.16756883556435    3.27544916818104    7.17022658659675
H         0.81265715069909    3.66847927470336    6.93631601586580

