112
CSD_code = LAVFIY | q = 0 | S = 0 | Stoichiometry = C57H49OOsP3Si | MND = 6
Os       10.21046650252809    4.81066719197457    4.43413791722874
Si       12.53597671748800    4.83153041454860    3.70347025435621
O         9.77642365653327    2.10111722316816    3.10427124313326
P         7.91876443390464    4.92596464703635    5.12999335330281
P        10.87314634412073    4.31519007342101    6.65908069554681
P        10.01095481764536    5.84628156653394    2.37490951007974
C         9.88453459479893    3.12053001046069    3.64736415543534
C        13.21265553318166    3.36956005910935    2.62273553392774
H        14.03779113664182    3.70940173015112    2.00520680487655
H        12.45246654873849    2.95665440767818    1.96706349214585
H        13.58143836426896    2.56968329899186    3.25532634634653
C        14.01647437479408    5.18475083779987    4.89196354269869
H        14.95611864735404    5.01855521578772    4.37738718922379
H        14.00079068132827    4.52659621717109    5.75207792580269
H        14.00311542987007    6.20608081099160    5.25653428423322
C         7.45203768898977    3.67893328474780    6.40050932968127
C         6.49582049316305    3.90607686599212    7.38349730524599
H         6.03058512444482    4.87523640202037    7.48238351973968
C         6.13904620371519    2.89647117365093    8.25974252929080
H         5.39691215000621    3.09172799023376    9.02027727428249
C         6.72198575216902    1.64548803775810    8.16595455036056
H         6.43061827796394    0.85781049707704    8.84479880588073
C         7.69505699595169    1.41672272247397    7.20850068369614
H         8.17284066072691    0.45017524880907    7.13865393524045
C         8.06568147458091    2.42895357428856    6.34398392026169
H         8.85593423972132    2.25030011868896    5.62491298217658
C         7.05840629547614    6.41172582217247    5.77197250137321
C         5.66858471038011    6.52445033213332    5.78288138922040
H         5.05703750842788    5.72047280409166    5.39617947851294
C         5.06711649088154    7.66423405759298    6.28253388538142
H         3.98927025209442    7.74287252384840    6.28373643796741
C         5.83822427197167    8.70270854349745    6.78127696292940
H         5.36189293461374    9.59200953222967    7.16762894436445
C         7.21789308462738    8.59625061614326    6.77957997152040
H         7.82769485278511    9.40067735610438    7.16527945276599
C         7.82191113945485    7.45743621387829    6.27662954327810
H         8.90151163462140    7.38430907072216    6.26008150698590
C         6.73860633092351    4.41260584404008    3.81993265891540
C         6.12087972411375    5.36633618456011    3.01340703954170
H         6.27262945822599    6.41754443514447    3.20788200496173
C         5.30454772725635    4.97897681440257    1.96650972529524
H         4.83611726617980    5.73371598735486    1.35154180420877
C         5.09366318355060    3.63533052214766    1.70578909825021
H         4.45739563376612    3.33429492539687    0.88662837990794
C         5.70368063258145    2.68045929695821    2.50235871894916
H         5.54494838343233    1.62980308048413    2.30745328983625
C         6.52285985099624    3.06387453171368    3.54871547098096
H         6.99255792760397    2.30584785712482    4.15794151011340
C         9.93409228427235    4.14161988951927    8.22223024245091
C         9.20916049214668    5.22120962741305    8.71660805680646
H         9.20282852087032    6.15618620161591    8.17445640476134
C         8.50756995392778    5.10890590546943    9.90170322210528
H         7.95403765304792    5.95685758504183   10.27904299879825
C         8.51762018870894    3.91575028031522   10.60421838146624
H         7.97486070695184    3.82939728703136   11.53404420687543
C         9.22452391940335    2.83213706967026   10.11007923633501
H         9.23016732125171    1.89765522392979   10.65242197310769
C         9.92439346907831    2.93916150225092    8.92329729274547
H        10.47214383206293    2.08917297682757    8.53976982140518
C        11.38561838975541    6.05294468231947    6.69853403943621
C        10.96779296452801    6.55360652991862    5.44034174817212
C        11.27315216663623    7.89842258971634    5.20929529077222
H        11.02993162044604    8.36009596617610    4.25747333947018
C        11.90410635696330    8.67364662995156    6.17090309570570
H        12.12877598484885    9.70989021321711    5.95300539342615
C        12.25300188034095    8.14687236160634    7.40444490042750
H        12.73520571929274    8.77015099899428    8.14476201758393
C        11.99302996591635    6.81457214343438    7.68084164902456
H        12.26147364803425    6.39026283089661    8.63946358961593
C        12.26891142511769    3.21076374281577    7.05237834193583
C        13.02950177668865    3.37565040870004    8.20559111921619
H        12.79298269326375    4.17238536486362    8.89631866459512
C        14.08344965396517    2.51953361434218    8.46292459498851
H        14.68144927087425    2.65468546297258    9.35267688999914
C        14.37400274630511    1.48792098491004    7.58336975363417
H        15.19876445158457    0.82157457472185    7.78956806834198
C        13.60823621915516    1.31112291502766    6.44290545917259
H        13.83179901215335    0.50409536168820    5.76043127138155
C        12.55917901056958    2.17191753347225    6.17583107700356
H        11.96226222086051    2.05801901415624    5.27995967494810
C        11.48664957636806    6.81697854147297    1.96367762569277
C        12.67647091993191    6.34567747004478    2.51708756470982
C        13.84997454515511    7.00769155247005    2.19110283628302
H        14.78434217295181    6.65976686235152    2.60464258865066
C        13.83886634842687    8.11017650818231    1.35264941534485
H        14.76284748608015    8.61959450867826    1.11685423419904
C        12.64568416374012    8.56812239600507    0.81729206606292
H        12.63684196762404    9.43156908639765    0.16716050928575
C        11.46165977477088    7.91731538675301    1.11623861031035
H        10.52728295342843    8.26904628170597    0.69887585135118
C         9.94299526321456    4.70145836395436    0.95483438006233
C        11.01889741886210    4.50077128082224    0.09820319497628
H        11.92353720219193    5.07767233298928    0.22444382848059
C        10.93023750245096    3.55836986602884   -0.91211619885755
H        11.77020901912439    3.40498682306609   -1.57416879092797
C         9.77653719361677    2.80999855237374   -1.07285976927521
H         9.71516312055960    2.07279444130207   -1.86006083251826
C         8.70215257744790    3.00392849572983   -0.21852906187447
H         7.80040231284591    2.42021160605551   -0.33482769996743
C         8.78682262349048    3.94083180242986    0.79196111892720
H         7.95618684512963    4.09407836456715    1.46660847071935
C         8.67018555568828    7.02110449705113    1.97475580330930
C         8.01345080722404    7.07293239265421    0.74965725542261
H         8.27151046814652    6.37576284294208   -0.03479359484374
C         7.02679732447639    8.02015762799908    0.53733914807559
H         6.51660208309559    8.05514046893502   -0.41480283533477
C         6.69164655038160    8.92228028952872    1.53409209629575
H         5.91703906525523    9.65532634544062    1.36148322195963
C         7.35244926033422    8.88362312766512    2.75189217434700
H         7.09585375060075    9.58366062603783    3.53447178053050
C         8.33575672422335    7.93694967366024    2.96819561052775
H         8.84955576554249    7.88883813942391    3.91727072290439

