107
CSD_code = LAVJUP | q = 1 | S = 0 | Stoichiometry = C52H48CuP4S2(1+) | MND = 4
Cu        6.96398830937934    9.76154195934008    4.47870347096500
S         7.55134785939281    7.88884300497568    5.62637100043233
S         8.06214249151902   11.56702684051268    6.19923601011759
P         9.17600780424090    8.10354402691518    4.56329201575870
P         9.74873635979356   10.59375178064438    6.24330050817354
P         4.71926924768794   10.04283461116212    4.89320188331352
P         7.32823885390821   11.03951580585911    2.68292221348564
C        10.11380536297498    9.69697660492368    4.66485273372304
C        10.40846227209482    6.87091375016473    5.07895879807470
C        11.60397057185361    6.75665497557525    4.37474100038391
C        12.53627131486043    5.81418516075395    4.76305811127615
C        12.27659068729389    4.98447983503240    5.84407809957731
C        11.07948498149119    5.08856176721027    6.53246403161588
C        10.14015863713888    6.02898121596212    6.14924680518088
C         8.94771797521308    7.77522159990173    2.78853730608543
C         9.69322334284307    8.37575102366272    1.78089105610431
C         9.47883828993835    8.00428842348392    0.46486390919104
C         8.53400237995718    7.04142418237658    0.15167373306257
C         7.80265115861503    6.43137213743320    1.15825549960075
C         8.01165604177955    6.79364288729250    2.47481715720533
C         9.93836882261711    9.35510981046637    7.55368780530303
C         8.88582050579558    9.09200420486727    8.41981167677724
C         9.04630297336881    8.14756394371751    9.41734493772121
C        10.25466056782056    7.48321915328457    9.55274645125269
C        11.31024526374019    7.76246736781271    8.69739045902400
C        11.15820800505778    8.70070281212218    7.69494816853478
C        11.15898741044699   11.71673068014584    6.45313348430142
C        11.38979793680415   12.17875461685100    7.74512397894091
C        12.38662376510213   13.10715274191217    7.97590273791264
C        13.14546032504806   13.58271252229931    6.91744755870233
C        12.90322003599468   13.13456055836562    5.62922749030285
C        11.90680457112944   12.20463820673198    5.38936255348857
C         4.30719661100014   11.80309780242744    4.54638411705270
C         4.80385224085556   12.29886575246211    3.18850856530518
C         6.31515116185075   12.52646762628019    3.11716163765845
C         3.98815375257575    9.85100357886173    6.54613277595147
C         4.74690265093946   10.32395680564102    7.61422510893545
C         4.26674255146741   10.21402471242238    8.90477967432357
C         3.03399958423768    9.62275958830344    9.13439305857888
C         2.28360319734999    9.14287234881724    8.07340621341675
C         2.75607880613962    9.25110073100240    6.77726928964056
C         3.63300960107248    9.05074951621733    3.82930472972786
C         2.63118203916746    9.54213774786060    3.00193054465565
C         1.90733385768685    8.66870057046442    2.20784023639046
C         2.17459310588645    7.31032116985841    2.23369476237746
C         3.17319324907763    6.81457911229023    3.05860894163553
C         3.90342146779860    7.68164959838693    3.84671118041912
C         8.81082167709581   11.86869222343289    2.02264020671553
C         9.43780034455017   12.83348315924132    2.81165350766605
C        10.59295382253371   13.45010582613098    2.36611802851249
C        11.14250639285540   13.09762479148398    1.14344937872596
C        10.53605963691124   12.12195325547590    0.36818432855364
C         9.37809755330746   11.50335909251434    0.80475145547400
C         6.44688196630664   10.42607435909424    1.22167564781546
C         5.86293926597637    9.16860547100389    1.32100646531523
C         5.11120710778712    8.66401242205923    0.27609708906867
C         4.94365311514824    9.41621675974861   -0.87426982438933
C         5.52178812832392   10.67317739519927   -0.97694521432332
C         6.26853801143608   11.18451306938184    0.06751229950175
H         9.81108140519965   10.35839055172986    3.84209984168129
H        11.18431463517476    9.47804661534575    4.60539524977726
H        11.79519355141875    7.39330234699208    3.52034863130680
H        13.46487246334491    5.72204648431093    4.22029905386362
H        13.00860908672768    4.24992443965094    6.14285160000736
H        10.87378703156664    4.43621895378153    7.36712952091709
H         9.20059681960937    6.12019782694393    6.67672982627273
H        10.44028243073768    9.12253798777780    2.00971669899064
H        10.06109376956695    8.46449560243984   -0.31944843307898
H         8.37330337494082    6.76109245086274   -0.87783619487238
H         7.07454976831911    5.67228904703587    0.91739430875329
H         7.44969628711369    6.32735142401086    3.27426186373222
H         7.94839992144448    9.61756667559005    8.29606726264756
H         8.22843752728135    7.93123136300669   10.08735294824403
H        10.37897623170427    6.74766463983059   10.33280060253491
H        12.25297188742638    7.24915109965164    8.81184027409901
H        11.98016702627103    8.93316232695891    7.03010575268093
H        10.78244833446053   11.80192142713936    8.55852827221305
H        12.57015682953174   13.46256142219270    8.97811582622830
H        13.92350397415661   14.30868904196225    7.09642168841942
H        13.49149752408178   13.51091049131451    4.80566435759242
H        11.71502838560677   11.86841061413539    4.37976009619280
H         3.22232079427787   11.92921924818150    4.63060544084319
H         4.77252263325847   12.38168252227864    5.35182637376459
H         4.49781214070609   11.60498464778061    2.39967917393746
H         4.31685537424229   13.25708042948863    2.98657051955955
H         6.68333414112587   12.89027599854973    4.08121599110524
H         6.53496383655937   13.28528211944110    2.35693093204803
H         5.70875977083098   10.77887649256609    7.41563334845547
H         4.85178167226020   10.58538863131212    9.73325040243577
H         2.65873474759667    9.53288077976664   10.14259993030128
H         1.32454255775470    8.68143564477488    8.25568974308303
H         2.17114494820335    8.87296922338366    5.95079367679004
H         2.40217198295174   10.59685895755606    2.97609211508498
H         1.12685462569463    9.05228133409759    1.56771343384849
H         1.60312402134192    6.63713057622302    1.61259624914134
H         3.37947450872455    5.75467509088434    3.08335676224332
H         4.69038299284695    7.31422520285389    4.49542433950626
H         9.02065646383449   13.09837117889911    3.77390046133267
H        11.06283973218336   14.20763492529219    2.97570653791692
H        12.04188729899203   13.58200344603141    0.79516444109176
H        10.96460045215282   11.84506630260672   -0.58353050340880
H         8.90233350847304   10.74515496977285    0.19902359183715
H         5.99889945170192    8.59696486710923    2.23143363565431
H         4.65326677859347    7.69063195183282    0.36403614402434
H         4.35822212482649    9.02686612114138   -1.69309141964681
H         5.38361229465130   11.25839923908629   -1.87363539314272
H         6.71230785651138   12.16746456808212   -0.00920182639111

