59
CSD_code = LAVLAV | q = 0 | S = 0 | Stoichiometry = C19H29CoN6O4 | MND = 6
Co       11.34136122849459    2.93686926536240    2.46109007822334
O        12.11002276234376    2.32177159084529    5.09381302146776
O        11.80228225834309    5.39947769222916    1.02943758064584
O        10.54257786136402    3.56857306424486   -0.15605866913003
O        11.05264320415269    0.39881971461033    3.83106096434817
N        12.09912008382072    3.21535946400847    4.16575581794790
N        11.91376313502143    4.70916433746044    2.19327384212358
N        10.57342372731752    2.65875613951589    0.75960865103591
N        10.84840611034667    1.13395599117646    2.70748715869198
N         7.69834605717319    1.81986895174657    2.62754614553123
N        13.21760531176727    2.31923135287113    1.55615945813360
C        12.63667928199185    4.38967104260115    4.34053716619843
C        12.54764819242726    5.24169307822168    3.18569422964898
C        10.11521875977865    1.45770721523264    0.55953421169431
C        10.27538290427074    0.57941776487058    1.69019610624214
C        13.29842239758806    4.80717554319680    5.61470350624081
C        13.14546843164266    6.60863904199261    3.15443659148603
C         9.44737702972955    1.03620465636545   -0.70827140220110
C         9.76818698514616   -0.81987965603745    1.69470919860044
C         9.53200009503866    3.53902685995093    3.17539616962601
C         9.04595394865713    4.89608725761085    2.65933334070649
C         8.53894153035330    2.56489103141114    2.87159608854704
C        14.53262657687632    2.35417754107050    2.22632300977609
C        14.65106320922027    1.19532605793590    3.21282247049061
C        15.65956291917511    2.30866280919417    1.21647876829003
C        16.65774192098329    3.27341580133196    1.23848791079903
C        17.69702845543596    3.23535101176255    0.32588370363586
C        17.74740282593851    2.23167757108604   -0.62569583668655
C        16.75577999401051    1.26612051887939   -0.65769085764630
C        15.71951691864352    1.30405414119402    0.25750518310067
H        11.46953021009142    1.06958221006277    4.49857803228888
H        11.23883643535457    4.76919913431275    0.41614359713839
H        13.20908100870936    3.99395062243067    6.33177891425505
H        14.35379409764327    5.02494880167508    5.45401493825634
H        12.82348518040285    5.69792958417732    6.02266690018456
H        14.21059560736662    6.56395311101808    3.37513037942670
H        12.99723060265104    7.05011001939799    2.17245545913087
H        12.67316948059060    7.23929552632405    3.90611135673349
H         8.42485019378067    0.72643192105247   -0.50046292016010
H         9.43332645953532    1.88295332400541   -1.39107697889419
H         9.97465406949312    0.20630178427459   -1.17733918579386
H        10.22578018670951   -1.37610356642972    2.50885537844578
H         8.69108869045531   -0.78914274017299    1.85949301415781
H         9.96029508259143   -1.31358186311478    0.74576209545573
H         9.63028850440272    3.57346688584282    4.26821286191474
H         9.01885484138501    4.91879577110603    1.57187089954112
H         9.67797400475770    5.70499091281576    3.01664859107836
H         8.03075936663875    5.07750510628285    3.01894889012881
H        14.59677758380708    3.30001516854560    2.77574167678254
H        15.62483708255157    1.22149287613860    3.69487942793771
H        14.54884709847293    0.24190671996355    2.69887328862456
H        13.88548848184354    1.26202334066840    3.97989108528412
H        16.62093576916622    4.05965221662908    1.97921804119025
H        18.46685665262972    3.99187765554447    0.35677532116387
H        18.55633569590882    2.20099463389099   -1.33981865788015
H        16.78977152735463    0.47942199038877   -1.39668402772603
H        14.95787814016454    0.53709563148313    0.22196241266346
H        13.27081525745362    2.92726260055943    0.73675603618383
H        13.07610857103171    1.37440376918633    1.19805956491754

