42
CSD_code = LAVMOL | q = 0 | S = 0 | Stoichiometry = C18H17Cl2N4Rh | MND = 6
Rh       -0.37045721683581   10.22417669417183    7.64985661060716
Cl       -1.37070551748540    8.27196928362539    7.01334913645485
Cl        0.59950355702184   12.28400680759891    8.06796316123318
C        -1.47607785156661   10.36256666200426    9.29362564120621
N         0.43371078027216    9.18672510788884   10.07541648840442
N         0.75944738878829    9.33133172953898    8.86197752154325
N         1.55406076351410    9.89748741535407    6.28887256258512
H         1.67345562473052    9.75661123388768    5.28894694375068
H         1.83322511871973   10.85601218943949    6.52700169999287
N        -1.69147624919770   11.22740175796841    6.21700498846734
H        -2.53165073791215   10.64989359431272    6.16428281467844
H        -1.90257539643611   12.15994995590036    6.57254133719994
C        -2.70426187964877   10.94224376363019    9.54977786046387
H        -3.27017003339850   11.42202790400683    8.76182474145277
C        -3.23219399322433   10.90508770961345   10.83335719768605
H        -4.19754395454981   11.35300343398531   11.02024869116493
C        -2.54127921410348   10.30184307789403   11.87801587630468
H        -2.97263222256777   10.28993600591311   12.86772703906717
C        -1.31187172220528    9.72309681534191   11.65376027381310
H        -0.74935311614706    9.25379005891541   12.44532029189781
C        -0.77526725207474    9.75042072315191   10.36350056743853
C         1.91660240966533    8.72469946773299    8.38859905883491
C         2.65244906863286    7.83632569554113    9.17505527682666
H         2.35033045019639    7.69104785054316   10.20018167031716
C         3.71311944451389    7.14605820201825    8.62660603028519
H         4.27532648560893    6.45412286959115    9.23406176701611
C         4.04012774459661    7.32009989004236    7.28918354877046
H         4.85456020448632    6.76061369180872    6.85498926620657
C         3.33240426199712    8.21634233876522    6.50709154802231
H         3.59329415816486    8.35444938234101    5.46726682138112
C         2.28328959549508    8.94685428133038    7.04683330586102
C        -1.01844130753823   11.28642417700341    4.96667596101887
C        -1.10454538092073   10.21834420682380    4.07803569957843
H        -1.69606025031580    9.35376829555163    4.34028707565033
C        -0.40736261601552   10.25882205721818    2.88428692448202
H        -0.47514497169939    9.42667888555106    2.19955957752607
C         0.36922175302910   11.36080960494719    2.56346637863575
H         0.90806260806218   11.39022565970423    1.62846041461015
C         0.44919125897879   12.42628631551592    3.44534940052224
H         1.05038589947005   13.28869650652507    3.19943151367596
C        -0.24423840343310   12.39633872052943    4.64182052031111
H        -0.17015928867032   13.21850997677613    5.33838679505912

