41
CSD_code = LAVNED | q = 1 | S = 0 | Stoichiometry = C17H16FeN3O4(1+) | MND = 6
Fe        0.54692518334545    9.02211162232686    0.95102753186253
O         1.85092874356284   11.92686104721648    1.32303448871742
O         1.15464519467553    6.30670286033467    1.09995322938781
O        -1.66362012682776    7.41074145139921   -0.00351069683884
O        -0.98278794530401    8.69594370232875    3.38598554507496
N         2.20657020777380    9.85209633935460    2.07603481413177
N         1.71921708256216    8.76132525923298   -0.79604741573585
N        -0.29324000343354   10.73646685641928    0.19251698723248
C         2.55771810229866   11.14160340171773    2.15252643228654
C         3.56723612933276   11.58695592187093    3.00416086264836
H         3.82997075104452   12.62937059782252    3.05773869009363
C         4.22854482982442   10.65816854630050    3.78577674105595
H         5.01337358884740   10.97516004549895    4.45414061312613
C         3.87062320148513    9.32306142641447    3.70048162986479
H         4.36628601615098    8.57529420926198    4.29693168362058
C         2.84787588606507    8.95710121264645    2.83890675524141
C         2.39086992715266    7.54539990190944    2.70647875036317
H         1.90025337958161    7.22200488390154    3.63080275869567
H         3.23088198993567    6.86461812672068    2.54158954806335
C         1.37170840922723    7.38177967102102    1.58516889220514
C         2.06261344966081   13.32691618811675    1.34499285423391
H         1.84256831477291   13.74736044627373    2.32893131050980
H         1.36945972072779   13.73813938762519    0.61406870806471
H         3.08518909458928   13.58186041275408    1.05452747506456
C         2.45564406472519    9.78583956620901   -1.23124467663360
H         2.41443339016360   10.68911801764875   -0.63894936669296
C         3.22554407408634    9.72846162012459   -2.37926148527948
H         3.80469292657788   10.58558065099466   -2.68394029085521
C         3.23566417862219    8.55800467461384   -3.12278836370177
H         3.82453373538414    8.47907507196131   -4.02331051636628
C         2.46697432238099    7.49483062590764   -2.67747158577999
H         2.43677247904704    6.56326452435977   -3.21883768734284
C         1.72714305914485    7.63778531147651   -1.51578664589498
H         1.13526169749788    6.81626847234225   -1.13931135714770
C        -0.78674784977174    8.06361156725394    0.30672806972637
C        -0.95098871519430   11.59951260056947   -0.18063447800616
C        -1.76817252599372   12.66817643676096   -0.65019302513658
H        -1.23836335240045   13.23934645263353   -1.41235911456904
H        -2.02778525550282   13.32544871796054    0.17967255043943
H        -2.68364573080802   12.26315421391944   -1.08188583525360
C        -0.37707162501257    8.90137795679426    2.44075561952733

