55
CSD_code = LAVQII | q = 0 | S = 0 | Stoichiometry = C26H18N4NiO4S2 | MND = 4
Ni        8.49512181060158    6.83975721427583    9.38899069821569
S         9.24584419762874    5.31095929948642   10.75219349086517
O         8.13928812512380   11.55690203916426   10.74445064039562
O         6.55468779323244   12.84959554210224   10.08619692548918
N         8.50387331496849    8.07795562817717   10.96797852197038
N         7.06893966037071   11.76189433947854   10.19489249884437
C         9.80177461344979    6.38817009390270   11.99110440736002
C         9.39045894938111    7.73420155242995   11.98100417208667
C         9.87987844176712    8.61977543381624   12.94269360217294
C        10.74084793054846    8.16500391586064   13.91787158218527
C        11.10738795585497    6.82143739263588   13.95935793968150
C        10.64491328235818    5.93892081180404   13.00893812753192
C         7.68563701641486    9.05941220755842   11.09675695867589
C         6.70675365155612    9.33368480721619   10.06128365721488
C         6.37588100016540   10.63223623357641    9.64871706348782
C         5.42083934195937   10.85270885834815    8.66501707467415
C         4.78410688516645    9.77809904118885    8.07424605711928
C         5.09400025854548    8.48402876365344    8.47235477550592
C         6.04012782661548    8.26168441936146    9.45677431514867
H         9.62428535840280    9.66752792230387   12.88962074857262
H        11.13436526728617    8.85349471751283   14.64959622055375
H        11.77459098930864    6.47292279466254   14.73333348266715
H        10.93960190012885    4.90110866984242   13.01972493950021
H         7.67292545858432    9.66788786811124   11.99826191067657
H         5.21351812515430   11.86862474056601    8.36556227646304
H         4.05183252729583    9.94475062006173    7.30043092305088
H         4.59582496466261    7.64515694192963    8.01086157295651
H         6.24041339806064    7.24338256897233    9.81023332387233
S         7.74525308507409    5.31078865926982    8.02555404967432
C         7.18934663209253    6.38811489151729    6.78673274785826
C         7.60065887786165    7.73415103863190    6.79687828807001
N         8.48720919220263    8.07787184922706    7.80993610144629
C         9.30549888493365    9.05931642820452    7.68117710748367
C        10.28440052009609    9.33363341900260    8.71662730964661
C        10.61525209582754   10.63221002172475    9.12916536901998
N         9.92217465220663   11.76186794410322    8.58300751583791
O         8.85185285659617   11.55685123675010    8.03339422039651
O        10.43645128820413   12.84955990660230    8.69162143735472
C        11.57030048868276   10.85272012879495   10.11285116381538
C        12.20705344731055    9.77813369131441   10.70364317577486
C        11.89721482870082    8.48405396147990   10.30554139445912
C        10.95114616194637    8.26167309543719    9.32108354427002
H        10.75114115082632    7.24336126164927    8.96743299852852
H        12.39543902779391    7.64520001871248   10.76701362407858
H        12.93932666533801    9.94480834459906   11.47745109676670
H        11.77757849052131   11.86864330064853   10.41231203077971
H         9.31821968542164    9.66780238940927    6.77967750157299
C         7.11127823879542    8.61975189723666    5.83518657132401
C         6.25031844005493    8.16500533399092    4.85999025735441
C         5.88375612997949    6.82144385787349    4.81848398485593
C         6.34621846014071    5.93890227761969    5.76888088046097
H         6.05152220179010    4.90109391046431    5.75807429345128
H         5.21656412404608    6.47294301693516    4.04449409655624
H         5.85682270050641    8.85351129551509    4.12826773928383
H         7.36688162845657    9.66750238528958    5.88827359293649

