57
CSD_code = LAVQUU | q = 0 | S = 0 | Stoichiometry = C28H24N2NiS2 | MND = 4
Ni       11.28323600033961    6.71433329131690    3.19670222854569
S        11.83918284577997    5.21963654823647    4.69645828851958
N        11.14134370992987    7.98991664704427    4.71800136132878
C        12.40915465412198    6.36721304342618    5.86332368986061
C        12.01973846654863    7.71755932138288    5.75854808942147
C        12.50449526539559    8.65329124300428    6.67119525899405
C        13.35048530652936    8.25296680408371    7.68349113260924
C        13.69973997767831    6.91146734993399    7.81442172768217
C        13.23342006680418    5.97509607350421    6.91889440835510
C        10.30806274603527    8.96781860014062    4.74490128048578
C         9.28796797745595    9.09655063056899    3.72325162108841
C         8.80364091717418   10.34800386708683    3.31090638334526
C         7.84108081267160   10.39202779798412    2.31476048283048
C         7.33905913957618    9.23288609682967    1.74491102067902
C         7.79038418392278    7.99670235839797    2.17522697836433
C         8.76283712048865    7.92795616901331    3.15422771558124
C         9.32514910467473   11.61424448914613    3.92149243422797
H        12.25603978303099    9.69874392366317    6.55826792245027
H        13.74444497667815    8.98277061681922    8.37446144226658
H        14.35491910901144    6.60559826911848    8.61663363261343
H        13.51299321207375    4.93606998289815    7.00146679184711
H        10.31393303187779    9.68901994917506    5.56091192230064
H         7.47580871528862   11.35204236192103    1.97802480623784
H         6.58909684263619    9.29582023147983    0.97115725054168
H         7.38833294550914    7.09133255145469    1.74737258714838
H         9.07800993931964    6.94783265885257    3.54233134784229
H         8.96089639756327   11.71539061460856    4.94459400322944
H        10.41340604605326   11.61875443023976    3.95353545972527
H         8.98789461313153   12.47979356864850    3.35634903878640
S        10.72728770002297    5.21963383492133    1.69695019952365
C        10.15731824381777    6.36720936278912    0.53008239660691
C        10.54673967794628    7.71755448001989    0.63485321888623
N        11.42513569907243    7.98991200965719    1.67539893587628
C        12.25842210458927    8.96780906798415    1.64849438559413
C        13.27851806306045    9.09654013097153    2.67014323779712
C        13.76285240486572   10.34799240794814    3.08248264767548
C        14.72541406197175   10.39201519228346    4.07862721792079
C        15.22742977722585    9.23287317719081    4.64848117821619
C        14.77609723189939    7.99669012009987    4.21817110818126
C        13.80364308013432    7.92794521747422    3.23917152101978
H        13.48846472253698    6.94782175582876    2.85107196738054
H        15.17814365881897    7.09131987835521    4.64602907965337
H        15.97739340775874    9.29580632179283    5.42223370921363
H        15.09069195430851   11.35202917031830    4.41535826414978
C        13.24135115646077   11.61423351157301    2.47189160814789
H        13.60560844809372   11.71537587675900    1.44879128411908
H        12.15309439053222   11.61874744226142    2.43984418466236
H        13.57860654594692   12.47978276967848    3.03703421688854
H        12.25255577005880    9.68900665428033    0.83248034510029
C        10.06198611426580    8.65328543664300   -0.27779651584074
C         9.21599438747747    8.25296089981920   -1.29009096191413
C         8.86673525448189    6.91146225941171   -1.42101749461759
C         9.33305213359039    5.97509198959914   -0.52548748180255
H         9.05347644792461    4.93606637670411   -0.60805751368567
H         8.21155397385910    6.60559312299482   -2.22322762000356
H         8.82203545200599    8.98276430975855   -1.98106212843596
H        10.31044422995618    9.69873773285671   -0.16487129723902

