51
CSD_code = LAVQOO | q = 0 | S = 0 | Stoichiometry = C26H18Cl2N2NiS2 | MND = 4
Ni        4.92475120987421    0.56729806795786    3.17875612351190
Cl        6.63281340341732   -4.51466222193065    2.74442335937198
S         4.34758333351903    2.03498366501860    1.67488134520862
N         5.05353912375714   -0.73060261758224    1.67460304397846
C         3.75621667783711    0.86633036070950    0.53958447034449
C         4.15684659086655   -0.48206266771274    0.64991410445615
C         3.66472758756994   -1.42842501037566   -0.25083427884817
C         2.79756868843579   -1.04160222639195   -1.24844294668727
C         2.43029086372276    0.29636258568016   -1.37964016798508
C         2.90504409250223    1.24316344991287   -0.50074249417221
C         5.82930112384910   -1.75512162811846    1.72749417850648
C         6.87538460939252   -1.81516783325453    2.72665704664284
C         7.34447050825058   -3.02305294812250    3.25369709323996
C         8.34175468201466   -3.04416960886285    4.21199816318110
C         8.90190753585214   -1.85466037403077    4.64909454103970
C         8.46747117715875   -0.64576655012193    4.12868129088356
C         7.46200287041989   -0.62352828756120    3.18182552605352
H         3.93197677012159   -2.46907831424273   -0.14310813682309
H         2.40112906834794   -1.77779884857884   -1.93092171573621
H         1.75788912728023    0.59005754876840   -2.17190786730059
H         2.61660183305301    2.27940144521725   -0.58668665302944
H         5.75754059859381   -2.57493135152089    1.01595594977059
H         8.67474411104328   -3.98836520726086    4.61410963969774
H         9.68125557461166   -1.87559299481992    5.39465957335348
H         8.91133759450346    0.27868189655283    4.46385063956220
H         7.15389945013276    0.33042884065973    2.73189970785250
S         5.50191452222496    2.03498620823256    4.68263072995746
C         6.09328196234253    0.86633319501687    5.81792753983654
C         5.69265184980132   -0.48205986341535    5.70759920798396
N         4.79595967259751   -0.73060040468696    4.68291016896323
C         4.02019762077826   -1.75511959502468    4.63001907802454
C         2.97411351824279   -1.81516622714282    3.63085685412567
C         2.50502747257931   -3.02305172802361    3.10381749539061
Cl        3.21668496441344   -4.51466041672013    3.61309229345598
C         1.50774327466288   -3.04416892820914    2.14551657543087
C         0.94759030039230   -1.85465987780028    1.70841978509990
C         1.38202647357052   -0.64576577516319    2.22883249515526
C         2.38749456343892   -0.62352690928236    3.17568842652023
H         2.69559685787882    0.33043078763810    3.62561467135432
H         0.93816023298584    0.27868252229890    1.89366249381076
H         0.16824155825432   -1.87559280537232    0.96285554641124
H         1.17475331112967   -3.98836459571874    1.74340582384439
H         4.09195819414527   -2.57492904494864    5.34155761817167
C         6.18477065069848   -1.42842154749987    6.60834843783122
C         7.05192910193734   -1.04159781630106    7.60595710987733
C         7.41920682344954    0.29636712705309    7.73715328108606
C         6.94445382453602    1.24316723114010    6.85825469745385
H         7.23289490039322    2.27940554570590    6.94419876075055
H         8.09160798881381    0.59006290552470    8.52942115183246
H         7.44836978282981   -1.77779404826136    8.28843568769537
H         5.91752237176916   -2.46907510903323    6.50062253387581

