59
CSD_code = LAVQIL | q = 0 | S = 0 | Stoichiometry = C23H29N2O3RhS | MND = 8
Rh        3.36540140957093    7.02245020572620    8.52738084345594
C        -0.99390088263709    9.61652807408482   10.87312938237149
O         3.37517424743828    2.81749515268042    7.91179623975656
N         2.20739211325299    3.07916005528333    8.61577587570843
S         2.44561014209988    7.18917098951398    6.47545740158032
O         2.14363653741675    8.55180167457083    6.04414528461410
C         0.12195613673546    7.49409972049898   11.13723320733463
H         0.34533743929322    6.62539850225868   11.73854621968730
N         3.28986729600540    4.98493292856814    8.24784505158636
C        -0.69505409480043    8.48961503746101   11.63254503925494
H        -1.11230770820589    8.39395633495541   12.62507496282097
O         5.05284641292824    4.09371259137873    7.04949197297404
C        -1.86821990896342   10.69759931831853   11.43019858802381
H        -2.21991093510621   11.35884861262469   10.64231290439631
H        -1.31232305874581   11.29435037878137   12.15426141458236
H        -2.72809343661528   10.27095638123723   11.94284827429552
C        -0.44846734987989    9.71678754552507    9.59865833833817
H        -0.67333907961443   10.58121863042640    8.99008504066057
C         0.37858283857809    8.73077932084448    9.09640333934038
H         0.78934683277699    8.82786705007234    8.10128231963001
C         0.67728814464657    7.59862486354123    9.85846655943367
C         1.23646861200101    5.23906460132528    9.39890615427449
H         0.32397381936187    4.83241935618593    9.80894409170048
C         1.53892947212285    6.54568669046868    9.33833941315173
C         2.20168297514246    4.36289509007550    8.79289289525672
C         4.02438706590272    3.99482307109395    7.68679612044853
C         4.04114751575973    8.26276530282282   10.24543232209745
C         4.93830259780096    7.17059742550055    9.99744623529234
C         5.61024910837379    7.40896242716676    8.72749006635401
C         5.02812135408341    8.54656521473477    8.15297392287467
C         4.00050052997883    9.04707312120506    9.05624874758690
C         3.38396551198943    8.57382493910965   11.55225808488744
H         2.49306577045318    9.18063634305166   11.41436540029124
H         4.08649050311178    9.12802741766350   12.17741294937504
H         3.10333081943487    7.66539549905225   12.07979261291913
C         5.38151850171775    6.14958506728033   10.99786368649798
H         5.69625045658663    5.23620130091664   10.49822962438372
H         4.58116895830967    5.90840298259873   11.69378920155126
H         6.22742680772790    6.53910498816517   11.56777658759565
C         6.77392960417475    6.61574027126790    8.22257732964859
H         7.28652079890606    7.14986930341755    7.42650950997028
H         6.45212773932077    5.64891823944207    7.83186712977206
H         7.47902204682338    6.43730650497633    9.03311703928658
C         5.43249599648503    9.26419272008865    6.90573584621549
H         6.11134279247827    8.66474320083803    6.30408828281730
H         5.93671080848990   10.19457904955330    7.17339315486190
H         4.55791016365545    9.52150861528664    6.30934459006051
C         3.31950176384549   10.36588036413256    8.86884926794817
H         2.91085761962473   10.44334623823921    7.86299531462308
H         4.04025266107525   11.17340563709905    9.00796362549646
H         2.51040886144655   10.49489902646383    9.58262610234925
C         0.99597529776144    6.17301687479621    6.03990364171924
H         0.71106307093487    6.41092621724306    5.02158929655206
H         0.18918225189043    6.41553119589144    6.72312931740263
H         1.26969758500133    5.12999815925408    6.14120511553454
C         3.60373647609231    6.51724858832568    5.24099547755445
H         3.07538462204094    6.33358809328276    4.31294115513306
H         4.04698483560904    5.60592351106204    5.63061768316817
H         4.37639152873155    7.26179398217009    5.08395474352427

