59
CSD_code = LAVSAC | q = 0 | S = 0 | Stoichiometry = C28H24N2NiO2S2 | MND = 4
Ni        0.56090973113062    0.56106836279152   25.55016400715375
S         0.16921544688242   -1.15390629182325   26.83349103833769
O         4.96261386598398    2.95723121134388   24.50368752132109
N         2.42027246189287    0.52175339897653   26.28422991771556
C         1.44484193735333   -0.81801157016789   27.95743389334409
C         2.49695502769367    0.04312104288188   27.58415454511125
C         3.51120104941663    0.32958830488151   28.49887751310453
C         3.48714411194931   -0.23443946989518   29.75578646012054
C         2.46559901566171   -1.11203725390502   30.11156436568862
C         1.45569585413258   -1.40564430111840   29.22363851435594
C         3.42683867514037    0.99598270936915   25.63934145289883
C         3.32401658414875    1.29736664305670   24.23086874868262
C         4.12682715694248    2.30213167631958   23.65236406406020
C         3.99809258053472    2.57625961336105   22.29791767339955
C         3.10556551053835    1.85487421327163   21.51923721976328
C         2.33081395320991    0.85085046697044   22.07311012073331
C         2.43598906317916    0.57876539141700   23.42360610351577
C         5.76157425897886    3.99814279123057   23.99635191218930
H         1.86168105004964   -0.24683200772637   23.86595199356512
H         1.64648615425408    0.28912221780167   21.45709994041742
H         3.02297467580663    2.08220487427414   20.46728027757554
H         4.58855810751745    3.35094675066293   21.83447672777575
H         6.34286155942156    4.36247610285649   24.84220072452569
H         5.15016843376919    4.81450877169699   23.59932009203473
H         6.44356986586613    3.64081674157747   23.21828432725011
H         4.39284133907771    1.16058666866911   26.11186138890904
H         4.29648180726279    1.02336320558799   28.23724640177958
H         4.26248741502397    0.00605558752916   30.46763055713713
H         2.46045843382955   -1.55573204187234   31.09623350315516
H         0.65206186263734   -2.07364090319587   29.49287013844031
S        -1.15381806395241    0.16920105062363   24.26655420577389
C        -0.81806358645023    1.44485290484251   23.14259737605136
C         0.04310085942917    2.49695237261321   23.51583893283440
N         0.52171822201270    2.42031154556846   24.81578052425543
C         0.99594015559948    3.42688608829024   25.46064132424143
C         1.29732914651123    3.32403334154552   26.86910769718266
C         2.30212593789435    4.12678784920447   27.44762646869629
O         2.95724445346153    4.96257562293207   26.59631713051320
C         3.99817539095274    5.76149818533051   27.10366529106877
H         4.36252274131920    6.34278602353232   26.25782273881856
H         4.81452447318357    5.15006285671974   27.50068887832498
H         3.64086690019994    6.44349268057627   27.88174206181902
C         2.57623348055438    3.99803982053890   28.80207552522825
C         1.85480311083348    3.10554012661240   29.58074590823744
C         0.85076585950780    2.33081854596973   29.02685049010059
C         0.57871682681022    2.43599280061005   27.67634356056960
H        -0.24681627475490    1.86163658160971   27.23397079196551
H         0.28904697388356    1.64646513270121   29.64284043272188
H         2.08214456571350    3.02290934986151   30.63269760067289
H         3.35091948813739    4.58849412708643   29.26553363210333
H         1.16057341281684    4.39287503610207   24.98810266167732
C         0.32957403197478    3.51116533033559   22.60108415700489
C        -0.23448182422792    3.48709865729005   21.34418518082842
C        -1.11209899163641    2.46555922005412   20.98843877178533
C        -1.40569262127940    1.45566934801594   21.87638651679135
H        -2.07367136654881    0.65201654704532   21.60716730720815
H        -1.55579504080651    2.46039663207793   20.00377068817997
H         0.00600301656221    4.26243245665022   20.63232712045557
H         1.02331173297289    4.29647685883419   22.86271588082113

