43
CSD_code = LAVTOR | q = 0 | S = 0 | Stoichiometry = C16H22Br2NiP2 | MND = 4
Ni        3.11632190737960    5.12650285262851    4.70208627011973
Br        2.46223547178815    3.33705989400508    3.47930076450703
P         1.42967239714843    4.72300848281303    6.02767153526585
C         1.83168129662929    3.20521662975858    6.94639804372583
C         2.86316905693265    3.27698346972621    7.87976192376582
C         3.24134148301882    2.15122397756650    8.58594494984838
C         2.60203422945863    0.94359255953443    8.35560420091843
C         1.59377585488129    0.86360930283994    7.40986572666200
C         1.21059695173847    1.98744147677428    6.69948586675610
C         0.97298044039939    5.86531284271957    7.38848257690129
C        -0.23007236084337    4.43127551510458    5.31037190791409
H         3.37604484081515    4.21656987781147    8.04344109669855
H         4.03980171012305    2.21367140333728    9.31078222995283
H         2.89894178209784    0.06244031501797    8.90487298753117
H         1.10659227012309   -0.08077520063492    7.21692774498263
H         0.44140021857891    1.90928856195936    5.94649535749423
H         1.82630007699232    6.06437865898349    8.03254498257554
H         0.64321082223398    6.81227656142844    6.96178173989127
H         0.16642871296773    5.42097702642661    7.97109786653924
H        -0.59936774098058    5.37988282592553    4.91914867769571
H        -0.19006731010799    3.71151114169485    4.49569980946157
H        -0.90224317091018    4.07924911516918    6.09239962170574
Br        3.77503047945232    6.91282054754735    5.92717465197243
P         4.80516773745815    5.52556381214031    3.37804077099382
C         4.40322603398101    7.04353999392856    2.45946229920402
C         5.26198682018449    4.38351595075344    2.01708183922423
C         6.46492165877515    5.81760950049506    4.09528007468396
C         3.37182138175100    6.97187339184291    1.52599056478975
C         5.02432848949215    8.26132908730416    2.70640850946180
H         4.40865819244898    4.18451367911004    1.37301728844231
H         5.59179134723144    3.43655307175655    2.44374933402377
H         6.06852288788432    4.82797268096103    1.43453124463748
H         6.83433307078479    4.86905791362742    4.48652280601635
H         6.42494458425717    6.53742478069091    4.90991963353878
H         7.13708641185357    6.16966409540682    3.31325421354691
C         2.99369674739828    8.09767640684804    0.81983587955981
H         2.85889451919192    6.03233324096248    1.36229657384835
C         4.64122927109012    9.38520133443553    1.99601566214202
H         5.79352353994898    8.33947388732079    3.45939855554495
C         3.63298967128014    9.30529602146994    1.05025639862414
H         2.19521427402883    8.03529768219784    0.09501875275356
H         5.12838801727391   10.32959142974387    2.18901988733760
H         3.33606592376877   10.18649420086743    0.50105917874031

