31
CSD_code = LAVWUA | q = 1 | S = 0 | Stoichiometry = C15H11ClN3Pt(1+) | MND = 4
Pt       -2.43461018725245    1.77688730632513    9.34947551353703
Cl       -3.61538469431024    1.73725591724362    7.47284266956592
N        -3.90914282898752    1.29367724453321   10.61450093617915
N        -1.42503838126694    1.81372059918554   10.95556760708083
N        -0.66461174285335    2.26681390726601    8.55269231417575
C        -5.18333732709846    1.03531987855151   10.33614469436918
C        -6.10563773214199    0.70716693181606   11.31707562924392
C        -5.68725350609873    0.64581867849008   12.63766797145498
C        -4.35992930712444    0.91474972316760   12.93321983089567
C        -3.48003495648104    1.23799027657268   11.90658268483657
C        -2.05632799964460    1.53788261099943   12.10694942490737
C        -1.33777054144538    1.56318279806471   13.29821663296272
C         0.01530888064467    1.87592229188808   13.25148998783149
C         0.63915144605345    2.15630102541786   12.04194874007902
C        -0.12051371770967    2.11756959324737   10.87683089182800
C         0.31231522372356    2.37260345488167    9.49670973806507
C         1.61491555103615    2.69832661947642    9.13648668038762
C         1.92155013646392    2.91757314957317    7.80256049187070
C         0.91409865355031    2.80701732463453    6.85620934378681
C        -0.36583837067696    2.47961454398615    7.27470839704854
H        -5.46761460106982    1.09487087578525    9.29275697678765
H        -7.12844984376923    0.50486118159518   11.04502333846997
H        -6.37978399902344    0.39330714268680   13.42500901060261
H        -4.00930855499448    0.87367798779698   13.95133652046031
H        -1.81262886350295    1.34676620906535   14.24031280936140
H         0.58806970425647    1.90119576282180   14.16478963511049
H         1.68821285055571    2.39821454299015   12.01553615135239
H         2.37954856341220    2.77810913688803    9.89162246332586
H         2.92859672230475    3.16960035346019    7.51001606328043
H         1.11050071744346    2.96980612691995    5.80930417735830
H        -1.18185129399274    2.38319680466949    6.56911267378428

