104
CSD_code = LAVYAI | q = 0 | S = 0 | Stoichiometry = C51H47ClNiO2P2 | MND = 4
Ni        3.58607853427982    4.35280827119656   16.11353420587530
Cl        3.55477785095545    4.59099005079888   18.23087928122017
P         2.29853256753171    2.61375506774032   16.28995635114380
P         5.22308000695834    5.74730911963250   15.99805901592021
O         3.03663706659117    5.89014907650610   11.65852963251295
O         4.15266114217101    4.09155428197972   10.89468957914978
C         6.10581326933739    5.90574793869918   14.37095602623102
C         6.39732752574552    4.51543646303195   13.89809194204200
C         7.66022441925628    3.95612197789171   14.02725350385697
C         7.90832747258421    2.66939389897844   13.58088267108280
C         6.88816660262170    1.92322654713381   13.01536183810612
C         5.61900134517185    2.46249722506971   12.90092529809798
C         5.36492988779372    3.75315142141459   13.34063157178608
C         4.01908783547707    4.36605318354392   13.21332364692108
C         3.24135698736251    4.57297787507071   14.28682062857533
C         3.65401857944013    4.87231203898874   11.86831760341989
C         3.89201782076171    4.49612364268330    9.55379040832847
C         2.49014561288994    4.09823916630551    9.11126448983783
C         1.87823589257372    5.10035947170238   14.24203354129796
C         1.47612248001845    6.05088629614097   15.18957748798423
C         0.17425650098418    6.51236501184561   15.21624586800722
C        -0.75648036980811    6.02313537867150   14.31451210023224
C        -0.37476277452641    5.07321966771363   13.38015820188550
C         0.92618413486076    4.61269607854746   13.34275768912726
C         4.74706944276880    7.45627987251465   16.39165829515508
C         4.19625662750418    8.28553917500738   15.41814887001282
C         3.76922081831174    9.55750750095752   15.75335044160701
C         3.87133009771246   10.00465494691939   17.06071047290945
C         4.38815768185454    9.17040238741963   18.03869290201054
C         4.81939950116182    7.89862314878824   17.71004248675505
C         6.67719199703596    5.48616528623923   17.06789356054792
C         6.86356202359048    4.28723200816637   17.74030730447259
C         8.01208278525095    4.07680450935034   18.48387786905396
C         8.97742290045630    5.06466109432055   18.56378117462584
C         8.79056718871325    6.26966307904010   17.90318885725182
C         7.64854476579769    6.48082152980057   17.15547140630019
C         2.83938405773090    1.40666812928591   17.56982842697499
C         4.15091734960129    0.75350544168446   17.25222933038598
C         4.41848988031372   -0.52435593356960   17.73282888419628
C         5.64087949179371   -1.12658723242339   17.49603656501062
C         6.61938928842139   -0.45579108029711   16.78157411934557
C         6.36408427427124    0.81495719434940   16.29577074048172
C         5.13440662258591    1.40695493036236   16.52094185076318
C         0.56305506327530    3.04129813445154   16.80890659604111
C         0.10133987707915    2.33796662948652   18.04582416578684
C         0.49817155527535    2.80557813760615   19.29486710025569
C         0.08752680752506    2.16246503886101   20.44768583952802
C        -0.72587493153814    1.04383997349169   20.36920912908500
C        -1.12846734799559    0.57547844844409   19.13065570140454
C        -0.71793124089815    1.21844977186159   17.97568984544783
C         2.09587769786942    1.49627972856404   14.81260334898657
C         1.04289418672982    0.45069611122210   14.94411927791572
C        -0.23628108081044    0.67313239636971   14.44318717925587
C        -1.22240176311309   -0.28979754427201   14.56824698311870
C        -0.94439664473157   -1.49105178846130   15.19842450678737
C         0.33020345590560   -1.72963839308537   15.68447870029602
C         1.31703489802359   -0.76968350448966   15.55323811719238
H         7.02115144048857    6.48539168889394   14.50417493799460
H         5.44903252684576    6.41423518285111   13.66265607387455
H         8.45650554008297    4.53820796226109   14.47075393554376
H         8.89994651327707    2.25042351073424   13.67458256992329
H         7.07994933760749    0.91869458702572   12.66795182114720
H         4.81874731058726    1.88485110931178   12.46356462809606
H         4.65417484438642    3.99312499091124    8.95443458092158
H         4.01406628450833    5.58213924466092    9.47922883519405
H         2.34983937979242    4.35749082439191    8.06567395474942
H         1.75099236849113    4.62826185023715    9.70775384824573
H         2.34671936963353    3.02705700695931    9.23479128096690
H         2.20171361657024    6.44652642537833   15.89925996748476
H        -0.11665085539012    7.25325666040647   15.94713679223419
H        -1.77551645803459    6.37971955434818   14.33930782007907
H        -1.09878052225659    4.69122449001871   12.67404356782573
H         1.21744146554222    3.87648141459226   12.60567859528557
H         4.08203019418687    7.93411886728061   14.40207933807188
H         3.34768692996840   10.19775132996508   14.99232730152395
H         3.53593854689140   10.99833634436302   17.31898825518285
H         4.44987165212478    9.50926458311579   19.06239601438667
H         5.20279580028497    7.23651130652596   18.47361213021864
H         6.09965262453931    3.52490283916702   17.69958218909225
H         8.14809597080753    3.13915837949593   19.00236563997477
H         9.87363878679652    4.90288742030328   19.14471054545858
H         9.53860995736638    7.04643421932275   17.97241601169315
H         7.50205088627930    7.42561657375570   16.64823635595681
H         2.05067714050352    0.66087754796252   17.71199012817420
H         2.93725116457882    1.97612078335724   18.50164821513643
H         3.66220369309362   -1.04520692541351   18.30401676834385
H         5.83191761130779   -2.12007499177224   17.87491987950217
H         7.57685900460660   -0.92216538016771   16.60337601257711
H         7.11842035558355    1.34903927198254   15.73851358245003
H         4.93974109377023    2.40500672014468   16.11518983431958
H        -0.09337642777859    2.82984004297895   15.96239836505872
H         0.56381251645009    4.12207345397653   16.98061331945826
H         1.13899029874960    3.67353688015756   19.35500160414757
H         0.40321080730599    2.53529265636133   21.41082193111436
H        -1.04673854713204    0.54097146394637   21.26969574374946
H        -1.76573156162739   -0.29411280495771   19.05963106052115
H        -1.03998494511109    0.84875270083458   17.01364616457532
H         3.08158630187801    1.04608728059168   14.66130099339237
H         1.88280314418418    2.14796962874519   13.96367264868347
H        -0.45697418012664    1.60448474936735   13.93898428785377
H        -2.21024447406754   -0.10159208227492   14.17310352879167
H        -1.71440122038457   -2.24110848422249   15.30066945213924
H         0.55822943568018   -2.67103239199094   16.16247453417565
H         2.31739755890190   -0.97395676428042   15.90710232274130

