79
CSD_code = LAWDAR | q = 0 | S = 0 | Stoichiometry = C41H33CuINP2 | MND = 4
Cu        9.52932463387407   22.84190644274511    4.30726915952489
N         8.97087892913836   22.24298344024240    1.63210975870474
I        11.07424573349878   24.77136698876593    4.55360288166750
P        10.06798305050100   21.03884830794023    3.14048874940188
P         7.49041640189108   22.69998321685667    5.20710220484777
C        10.93674595630388   20.03019310859696    4.43049972842173
C        10.51600305410603   20.22685163159240    5.74188428061112
H         9.70787703781187   20.92813934957707    5.93813873241614
C        11.11434100121993   19.55886714036813    6.79331510629794
H        10.77425408231125   19.72802639657117    7.80531498677722
C        12.15832904484419   18.68500661609062    6.54093996996453
H        12.63773176039543   18.16501443160701    7.35731972276858
C        12.59490257444063   18.48564419401731    5.24044292967608
H        13.41365475896299   17.80778599332288    5.04485412775277
C        11.99183283953883   19.15333469276742    4.19065485648239
H        12.33885142183132   18.99688391936675    3.17758050234127
C        11.40794559940922   21.09805292845447    1.91733665662574
C        11.27965930099256   20.58659552648781    0.63216293070873
H        10.36281805202022   20.09292278940618    0.33783798841421
C        12.32913084036689   20.70914809180310   -0.26006002672129
H        12.23466219583522   20.30450289584443   -1.25795305275562
C        13.49730212016909   21.35049523072703    0.12012708997378
H        14.31107434721820   21.44752330368692   -0.58364601662293
C        13.62205787003258   21.86980499110156    1.39882132763297
H        14.52753495534592   22.37902108811997    1.69347287610048
C        12.58048585558087   21.74223562869191    2.29818991395035
H        12.66692775796064   22.14715683797759    3.29799472925306
C         8.87454103429418   19.80715676625411    2.53919199793363
C         8.94360649425026   18.46091300700945    2.88057919793426
H         9.76231799675235   18.09945441056197    3.48601253823445
C         7.97882850978145   17.57681999846282    2.43629642993995
H         8.05782207345544   16.52887733656143    2.68694497694710
C         6.91468202192065   18.02541277796244    1.66659075408855
H         6.16812876664054   17.32763063786497    1.31746785178769
C         6.81065486273092   19.36389847946505    1.34651858963711
H         5.98676770186049   19.71281449015535    0.74181424628747
C         7.78303901247321   20.26126524407530    1.77554526788871
C         7.77220979160117   21.67869198229475    1.46051092640594
C         6.66882605829571   22.43021863506402    1.05743145293280
H         5.70099625887827   21.96545415625565    0.95690340263679
C         6.84160801612674   23.77778812894543    0.81101956078620
H         6.00525605580880   24.38916117431180    0.50614418719797
C         8.10607299148555   24.34213235684756    0.96004854142648
H         8.27799219985549   25.38705209304188    0.75781019498120
C         9.14262900857305   23.53351434666901    1.37941373767397
H        10.14551741163316   23.91418399685629    1.52227816530102
C         6.31006447115552   21.41436060951670    4.69640541043451
C         6.62805968928269   20.08884998443989    4.99158524004320
H         7.52538574177623   19.86523153229079    5.55529619638969
C         5.79569639940842   19.06643064609264    4.58228869144070
H         6.03778240790758   18.04379171669003    4.83136310293000
C         4.65467183930993   19.35351692896695    3.84972058003377
H         4.00251461857457   18.55394812082016    3.53124143064123
C         4.35562345853354   20.66482805328832    3.52073099073537
H         3.47075195543537   20.88838909766430    2.94166037228406
C         5.17982296440618   21.69494869085714    3.93664442671430
H         4.94264720108642   22.71903346210919    3.68141988427307
C         7.56063315726037   22.50315696506611    7.01745443158780
C         6.68127215934408   21.72667911686846    7.76383441187644
H         5.88765500966558   21.17675633814195    7.27629695937459
C         6.82928951988419   21.65411511493269    9.13738410525131
H         6.14513708310935   21.04988577737491    9.71582189337721
C         7.84609415504578   22.34983124892061    9.77112269037606
H         7.95584810541435   22.28421510751031   10.84351982211160
C         8.72211741735151   23.12679131549289    9.03029828715527
H         9.51691867235792   23.66973917478169    9.51923082724531
C         8.58184688701413   23.20202014538885    7.65784957972058
H         9.26627659643268   23.80283268430945    7.07274656704014
C         6.50646732163725   24.22799262302022    5.07381133451311
C         6.95541007640733   25.22657476842904    4.21798243404225
H         7.86898852356399   25.07938556851476    3.65749786213125
C         6.24378126747402   26.40657965978884    4.09460787810935
H         6.59963935162711   27.18211705548680    3.43304163017148
C         5.08526247658219   26.59243478601732    4.82903574110293
H         4.52984370497263   27.51405395101894    4.73711875812281
C         4.63944254494556   25.60126918888675    5.69112197412723
H         3.73898053251665   25.75254632434840    6.26861724826357
C         5.34628185514749   24.42142963244140    5.81889519198465
H         5.00552539669489   23.64832941826467    6.49432991321400

