79
CSD_code = LAWFAT | q = 0 | S = 0 | Stoichiometry = C39H33CuIN3P2 | MND = 4
I         6.73920896114589    4.72936246762813    0.98421195474800
Cu        4.94989375093166    6.45989979338153    1.15636833791958
P         4.15273007293235    7.18394117494438    3.15563088205587
P         4.19178315534470    7.92376387071192   -0.34976449158272
C         3.36885599816391    9.46782383252550    0.12550443641097
N         6.05403496497526    8.74636346744287    0.87854476588537
N         6.50969151699626    8.54155527732472    2.07106122957663
N         7.77344823225197    8.16173692101049    1.97100059640285
C         2.84403358062055    5.94104653904288    3.42192534527045
C         3.33507742502074    8.72081452517196    3.70655328954782
C         6.67273190800381    8.57088791940058   -1.42133961749035
C         5.26609585490284    6.82483740308193    4.54860196416792
C         2.04321683828771   11.75340795609651    0.96010233967408
H         1.52516799479511   12.64556897204388    1.28011453862486
C         2.85745183999524    7.12246562548289   -1.33286300229576
C         2.06138191876485    8.74730216005211    4.26247227122535
H         1.50362753988853    7.83093315768522    4.39636291599635
C         5.31127375138784    8.38415735215388   -1.71198938841744
C         3.91636235170325   10.71821192040242   -0.12821433147809
H         4.85691307505414   10.79411506183056   -0.65609268203823
C         2.51401146478652    5.41681105764962    4.66831330950222
H         3.04445794221231    5.75139547018488    5.54963197802940
C         5.77239967741336    5.52769990597460    4.62249292636349
H         5.43693176012910    4.78214079197210    3.91441213993094
C         2.20058117822326   11.13578815458062    4.47903251155827
H         1.75886272079562   12.07313759725288    4.78435335551404
C         7.03162325092256    8.51158890233041   -0.02609467637048
C         6.69545299438617    5.19309426155799    5.59387554671842
H         7.08225313353818    4.18633408333091    5.64137520620327
C         7.12586869734386    6.15097447942481    6.49876047563340
H         7.84643656316583    5.89145845531418    7.26013921498358
C         2.16257228301522    5.49878898290894    2.29216244838040
H         2.43013179261649    5.89706453737498    1.31775833513337
C         3.04263519948738    5.75825923709068   -1.54575454795156
H         3.93005743350774    5.28030914540815   -1.14408184533151
C         3.46269558807146   11.11520968325371    3.90787773063862
H         4.00616635682224   12.03754699960044    3.76141087354725
C         1.51381202468913    4.46820777239539    4.77353653328000
H         1.26214917233790    4.06071359455866    5.74203894155035
C         4.02586621409230    9.91608674250447    3.51704494374540
H         5.00120810739273    9.88943700247872    3.05458316035413
C         1.16028927824562    4.55290352537946    2.40031674507704
H         0.63992481128231    4.21543629346313    1.51563908614397
C         1.50223778498360    9.95257109060841    4.64868085710680
H         0.51397386848044    9.96617830590946    5.08633946119269
C         2.11639309078503    5.02086701375974   -2.25826400628486
H         2.27367108434835    3.96427111154654   -2.41815365784175
C         5.70926640964318    7.78583347598131    5.45040361037479
H         5.32972800197195    8.79634020297316    5.39524698359989
C         7.58973868953825    8.78801668636868   -2.44237800211044
H         8.63396499359904    8.92183141253220   -2.20070446634986
C         1.71997687772769    7.73995796589771   -1.84269045512316
H         1.56380006697100    8.79958425722958   -1.69062134359566
C         7.15715237959234    8.84065121992361   -3.75306208804563
H         7.86696420918994    9.01081452236252   -4.54865888754766
C         0.79015228044540    6.99943370366278   -2.55041283734936
H        -0.09097848259168    7.48536469197822   -2.94513114586878
C         3.25198913224389   11.85607005112082    0.29165623919458
H         3.67640742301573   12.82977347320325    0.09137063445116
C         1.49908949419940   10.50666259369585    1.22316490166444
H         0.55951276143435   10.42392796175542    1.74969960409257
C         6.63058929151505    7.44287393457205    6.42533778703123
H         6.96419535474906    8.19057585755706    7.13117932940924
C         5.81184566428118    8.67241340252774   -4.04750267276751
H         5.47544684344027    8.71701843920640   -5.07292553296480
C         0.98418433759544    5.64311963318616   -2.75840295399030
H         0.25229212302342    5.07230761641818   -3.31098778557269
C         8.15720750038086    8.13300334275758    0.68038475422868
H         9.13000383066237    7.81720642309393    0.37105607589159
C         0.83619675877211    4.03635621174951    3.64373010598958
H         0.05917914965854    3.29162701584659    3.73303869657277
C         4.89705964796922    8.43275019704514   -3.03886844662133
H         3.85580365748882    8.28242508027899   -3.28519203960212
C         2.16524628010417    9.36703306203929    0.81775428776492
H         1.74909805652829    8.38862088393235    1.02891010758613
C         8.52841696344944    7.74786888738612    3.11464446561455
H         9.49905881179903    8.24310024534891    3.12672886669156
H         8.67401149168949    6.66572044509391    3.08417903552536
H         7.96285579567410    8.00544750801220    4.00823477071863

