40
CSD_code = LAWFOG | q = 0 | S = 0 | Stoichiometry = C19H13MoO6P | MND = 6
Mo       10.99698784024182    2.11458345867263    5.01244441417255
C         9.86415159253011    0.49966091040688    5.04159288234018
C         9.93756672393836    2.86582115709746    6.49539511922317
C        12.20054286735681    3.67391184989372    5.14964216211023
C        12.16031952662010    1.29725898556459    3.64081358499977
C        12.09342923643504    1.25740887374748    6.37807129081298
C        11.52990178188924    4.56037144310570    1.83202100997590
C        10.12050059256969    4.19250086257080    1.95873128883884
C         9.21341500339240    4.67735918105681    1.01650227674050
C         7.86194706437376    4.39770154050922    0.97943272041495
C         7.03354309176009    5.01962430620145   -0.10347485247649
C         7.25110462166785    3.54121354867599    1.91685113593918
C         5.77634069948594    3.29895265261287    1.79536867815268
C         7.95464623400515    2.93229006182069    2.95140535856241
C         7.30014862666530    2.00322316445433    3.90189471886376
C         7.11781125367362    2.38315799401260    5.22754908683464
C         6.55171970262520    1.50483868392878    6.13478422049330
C         6.16800454098075    0.23862466802733    5.72576799751029
C         6.34098917441381   -0.14413938272843    4.40570153484700
C         6.90463848868457    0.73189868486267    3.49606294030349
O         9.28785916717911   -0.47246453384555    5.17599324899501
O         9.41127378700556    3.24151535867642    7.43239174158496
O        12.93730888608426    4.52145419547552    5.33209986612390
O        12.88092201893971    0.79959498308507    2.91462249257499
O        12.73397866361427    0.75807743160950    7.17745143288303
O        11.98654801757151    5.28517816521477    0.98488850045875
P         9.64898203893620    3.15200014085063    3.26320442985826
H        12.18445118487428    4.09089155344690    2.60051732795646
H         9.63415199124334    5.32420241932583    0.25591608526779
H         6.25285012890953    5.65013225501083    0.32043760571080
H         6.54839082045560    4.25481167870810   -0.70840321717801
H         7.65264306299063    5.63163701147406   -0.75310112533302
H         5.23964608842738    4.24658765180552    1.80229322195669
H         5.40564237586925    2.68565232176519    2.61085518175204
H         5.55033305985754    2.80000343523332    0.85360627790516
H         7.39528248909909    3.38532676212985    5.52934326829008
H         6.41430688523794    1.80890787869214    7.16170122505349
H         5.73622887221142   -0.45075183026217    6.43535599121285
H         6.04403651016774   -1.13155020324088    4.08541199546023
H         7.05295528800831    0.43293068033976    2.46795688080895

