25
CSD_code = LAWGAR | q = 0 | S = 0 | Stoichiometry = C10H8O4P2W | MND = 6
W         9.31863247634888    6.67133559082864    2.18179027413852
P         8.18843636310515    6.12694910589485    0.10042943641248
H         6.94019094564995    6.60317335252498   -0.30412633025559
H         8.72643694073308    6.24818677497104   -1.18254744862148
P         9.20626625760581    4.25704340332663    2.43372127393066
H        10.28874030316391    3.37535420042417    2.40158850664371
H         8.59044765147357    3.57015373061485    3.48125147253480
O         9.32983524836187    9.75665009464885    1.68406305951351
O        10.74708081353254    7.16725703002193    4.91681916561362
O         6.52140297104105    6.89350155100132    3.58876795172724
O        12.11028341614076    6.42845782187549    0.76782644173360
C         9.32571431595348    8.62745046468170    1.86039779574126
C        10.22639475419740    6.97954006175062    3.91688476841265
C         7.54101622120339    6.81769104332125    3.07913646448134
C        11.09560975007640    6.52002773937567    1.28368277947320
C         7.80219435406351    4.34597231212069    0.03435933971267
C         8.25222574962043    3.51936139498929    1.06574385993687
C         7.96532697417904    2.15743920516384    1.03335431403955
H         8.31510425646301    1.52069970966680    1.83516135992696
C         7.23635867872849    1.62616508077278   -0.01407334125309
H         7.01332273692453    0.56994262694383   -0.03362421672538
C         6.78912119404133    2.44782088528324   -1.03931476556427
H         6.21881285376621    2.02973519004884   -1.85521048875337
C         7.07065195522662    3.80095667570692   -1.01729127128893
H         6.72319281840017    4.44533495404178   -1.81399040151026

