87
CSD_code = LAWJEA | q = 0 | S = 0 | Stoichiometry = C25H56NP2ReSi2 | MND = 7
Re       -0.24043600662082    4.27151189705655   11.76957191223158
H        -1.46980022883273    4.59865650829976   10.72708576765736
H        -1.17280983284143    5.34546473673856   12.54377204221471
P        -1.40111255304678    2.58031253705329   13.07412846434353
P         1.03138328379041    6.29545100948383   11.30320771991405
Si        1.09918478771945    2.93963780112031   14.69263885906671
Si        1.41776669960315    5.88809880747283   14.32191856855064
N         0.95733507378003    4.34442502342359   13.70609644476272
C         0.73023885015059    3.16477634243410   16.55256459894713
H         1.51905907613058    3.76087561536965   16.99814738148947
H         0.71913432149499    2.20897282905368   17.06803244128393
H        -0.21072274408651    3.66416415261196   16.75148496846566
C         2.85187250144674    2.16585408538716   14.68077751230105
H         3.55038945081621    2.86277558945961   15.12982729272221
H         3.23213735134001    1.91011502098513   13.69767989947572
H         2.86313351023430    1.26137280983952   15.28125097818195
C        -0.13832473319533    1.64654276184932   13.98836958789516
H         0.36295754165957    0.98070052593432   13.28837789836011
H        -0.58675506254528    1.03297760620658   14.76663253938838
C        -2.37267336386269    3.39702059042465   14.44489575432879
H        -1.64934637329815    4.15755860527566   14.77277754571722
C        -3.59574784665688    4.12083857828933   13.88596573239202
H        -3.94002267365978    4.87471044997882   14.59207453952944
H        -4.41315439331848    3.42488652636425   13.71622471716889
H        -3.34293256107660    4.61027755866022   12.94603869956577
C        -2.76214954328702    2.55646009077295   15.65699191946310
H        -3.14984700833301    3.21887976900578   16.43097642165117
H        -1.91531768478263    2.02112696180969   16.07524955359278
H        -3.54290577087443    1.84089436958566   15.41637947050947
C        -2.45367852231911    1.25905834008488   12.26729184222260
H        -1.72148759408304    0.73783410222070   11.63761407497847
C        -3.07520675426715    0.22542588186307   13.19977079078186
H        -3.42611792388957   -0.62538954440892   12.61565533605100
H        -3.93156930262630    0.63899954833369   13.72525652055503
H        -2.35760357260892   -0.14137791594384   13.93009075223522
C        -3.50602630916387    1.87728048953687   11.34988723758525
H        -3.80269627180481    1.16707978186906   10.57922536466762
H        -3.11104289937655    2.77530986906843   10.87578078157047
H        -4.39456626188509    2.15371950540899   11.90956338411221
C         3.14481600389106    5.89400645651093   15.13187428869725
H         3.07560651537692    5.42940851739301   16.10869447249005
H         3.50391564545085    6.90746996482129   15.27746589961083
H         3.88945617868595    5.34932011645696   14.56276492095561
C         0.20197064432830    6.61305937346799   15.61579962628046
H         0.22881765356340    6.04154825336733   16.53638267547047
H        -0.82176969155848    6.61185298111451   15.25198917511185
H         0.46360015405989    7.63793839750016   15.86243595668418
C         1.35173972244777    7.15231303115460   12.87628545729740
H         0.50955077678285    7.81674410739064   13.05475484665489
H         2.25138359218027    7.75940365216805   12.79820221552657
C         2.73499463462081    6.23868719670748   10.53842661839028
H         2.62267864441911    5.65034733395752    9.62101448604411
C         3.65886031425844    5.49983804266904   11.50398851870427
H         4.54959354787444    5.13283888896605   10.99315399271276
H         3.14762118411966    4.65550564387973   11.96352460888568
H         3.97843643365558    6.16585655530314   12.30176695801828
C         3.33589608424786    7.58982038118856   10.15872523710426
H         4.37644605947273    7.44724421012155    9.86663611995204
H         3.31821945972687    8.28578673655002   10.99508656637926
H         2.81358854275482    8.04291925294414    9.32012980979575
C         0.18428586171109    7.60751789490722   10.27774180215392
H         0.82087409029065    8.50017721464519   10.30152849729691
C        -1.18274316786268    7.96025907374341   10.85283828480439
H        -1.67658871543802    8.68723396239448   10.21002442224149
H        -1.10314083789305    8.38962426690653   11.84784990616844
H        -1.79663426527673    7.06326721018943   10.91311797029826
C         0.01479928204961    7.11539420513574    8.84437497867548
H        -0.45635068318960    7.88351930066989    8.23270299702719
H        -0.62568658751731    6.23511534396203    8.84957155457503
H         0.96803527370841    6.85518802192922    8.38968841346475
C        -0.07373525076725    2.46014455132773   10.24721556760015
H        -1.03826233625259    2.25156678575962    9.78945959710842
C         0.77159701072502    3.48722208137236    9.76280794650020
H         0.49128730756338    4.10978416997323    8.91533472929629
C         2.16786878634988    2.89501307746041    9.76345623597325
H         3.00600452541607    3.58409742112589    9.70809401804374
C         2.15851387358283    1.86946663282287    8.60665448345784
H         3.16869295959610    1.49992935379949    8.42513691598235
H         1.78742065788116    2.31067659918326    7.68163926169720
C         1.24107699358274    0.75431254462121    9.13716128907681
H         0.37273284721875    0.58794521028274    8.49976629922289
H         1.77809444377157   -0.19036971740989    9.23343668606393
C         0.83103175560260    1.27879962490150   10.53113734183974
H         0.43545570166145    0.49628771533885   11.17806003197970
C         2.11535003488483    1.97198630108612   10.97833115896490
H         2.00080097751839    2.51294955650776   11.91899240656873
H         2.97075870490691    1.29960328578665   11.05209943725657

