107
CSD_code = LAWJEZ | q = 0 | S = 0 | Stoichiometry = C56H45O2P3Ru | MND = 5
Ru        7.22528003943308    0.27841690322032    4.59361755962015
P         7.77399673924959   -1.94443033899423    4.88714853026227
P         7.46219160782599    1.89031565026568    6.20891497063053
P         6.62428491153120    0.78721528781930    2.43132053652487
O        10.12098638632080    0.94597032884936    4.10553077607937
O         4.32654360235912    0.02249891406744    5.36973974469779
C         9.01570257983147    0.65053708367053    4.25738112815746
C         5.43969993370577    0.06905105466185    5.06124607905981
C         6.72771509967544   -3.32110295475224    4.27322961773343
C         5.41620042139860   -3.32379262736186    4.74301543316453
H         5.09078476518700   -2.52388350753781    5.39673755086175
C         4.54265110375622   -4.33212628790775    4.38909219136710
H         3.52789972766690   -4.32355998331368    4.76060403323617
C         4.97060437547792   -5.35354591140835    3.55522455971843
H         4.28925915663760   -6.14231755535566    3.27059761921706
C         6.27500237392310   -5.36322204815548    3.09359935113903
H         6.61442266599656   -6.16313374842375    2.45093125096269
C         7.15581476165703   -4.35791962472083    3.45425499530075
H         8.17454225875840   -4.39019436357289    3.09569874597617
C         9.38119570455201   -2.28901857753198    4.10996081193343
C         9.42454147869675   -2.28532298712380    2.71549382704630
H         8.49771755086130   -2.18420723028124    2.16033329877148
C        10.63172928282264   -2.39722950877636    2.05408242620331
H        10.65620088082942   -2.40107186886726    0.97312627079053
C        11.81122317706949   -2.49034667754896    2.77751179432585
H        12.75678018548683   -2.56947990189682    2.26125118560256
C        11.77678293967247   -2.46524393146079    4.16117512744544
H        12.69710075487676   -2.51867985744731    4.72501783918620
C        10.56871958670169   -2.36118735090999    4.82882076882327
H        10.54741545603156   -2.32851002720694    5.91018384203417
C         7.96939518603893   -2.65236438560980    6.56769015587558
C         8.56299720161764   -3.89418696335661    6.77509882604295
H         8.94135808467463   -4.45635164674908    5.93160137632144
C         8.66801689001323   -4.39923329464188    8.05685129797625
H         9.13887076291308   -5.35824030258015    8.21977846947550
C         8.16893444163049   -3.68178090431011    9.13407160380336
H         8.25836129109881   -4.08097017831905   10.13393193473247
C         7.55020348040461   -2.46076339687869    8.92809157253213
H         7.15228549579026   -1.90411976450114    9.76444376865932
C         7.44973550468079   -1.95143387159464    7.64631544227220
H         6.97278625067816   -0.99391468270275    7.46038163384916
C         8.32462964612511    1.46493525205120    7.77357171439840
C         9.34330481514560    0.52046718456233    7.69837354643037
H         9.57384605669042    0.07280341332239    6.73654221297399
C        10.03608530478603    0.14054042309961    8.83133616484334
H        10.82461407635301   -0.59495099883684    8.76250053209752
C         9.70823413295866    0.69529075085200   10.05793444556233
H        10.23864157335220    0.39166496707896   10.94863785406713
C         8.69759851648483    1.63880021153846   10.14145847500785
H         8.44329349513829    2.07520134349605   11.09700423286529
C         8.00944736437767    2.02937162615726    9.00620011022515
H         7.22615595484133    2.77185578724097    9.07792838920722
C         8.42899569648560    3.37140142784694    5.72340360134843
C         9.23370127390735    4.08720001574029    6.60298708122379
H         9.32243247120503    3.77824272627596    7.63462269443584
C         9.93445530221616    5.19279308853528    6.15398720094450
H        10.56414507953863    5.73989541604969    6.84100454920126
C         9.83825599440993    5.59674670087844    4.83268139842034
H        10.39439573586951    6.45646592561646    4.48833508501251
C         9.03305028294888    4.89171141956790    3.95295533803335
H         8.95536293298441    5.19434330574494    2.91848159963033
C         8.33563240353335    3.78590790246948    4.39804442030116
H         7.71261133273384    3.22020250060036    3.71157173716730
C         5.93853500252093    2.65982839940965    6.84819278143379
C         5.52025637955622    3.92666046815973    6.45465223115036
H         6.15428668464556    4.53142540339323    5.82018656135317
C         4.29467704445262    4.41297998362614    6.87495478891315
H         3.97771375941995    5.39990097846818    6.56848471714438
C         3.47633060310384    3.64127344731014    7.68222608751661
H         2.51850803064824    4.02287880288608    8.00441590109544
C         3.88624292916356    2.37631214827965    8.07455648559346
H         3.24807713777085    1.77076838928420    8.70161246411905
C         5.10722870156429    1.88572231182271    7.65657901424567
H         5.43079919767807    0.89636640598126    7.95687296167659
C         7.82009621342887    1.71586117574031    1.41424777480595
C         9.07290588930172    1.14112542350487    1.20280343878531
H         9.27505732494592    0.14950981473980    1.58902701589970
C        10.05175551546910    1.83067262762423    0.51525350431208
H        11.01874208258922    1.37562238308830    0.35642295697705
C         9.79692366378016    3.10829591387203    0.04130258827678
H        10.56489425974049    3.65140510471901   -0.48986852520444
C         8.55884619102709    3.68875794264231    0.25638120454673
H         8.35816191315843    4.68611869886934   -0.10917858719500
C         7.57240741601878    2.99992370857704    0.94077523337696
H         6.61069048152670    3.46442523461040    1.11100275422109
C         5.09958722632908    1.75965040418096    2.15456540582262
C         4.63330696166946    2.57773762695006    3.17650627877943
H         5.16865956442154    2.60491074115147    4.12017528125989
C         3.49648786904424    3.34434032028611    2.99765397196189
H         3.14123955527954    3.97192965240372    3.80230498998975
C         2.81641519795893    3.29721573472247    1.79236074513484
H         1.92472857514895    3.89027078799334    1.65000449438625
C         3.27877637204472    2.48654093096133    0.76688596762644
H         2.74846821666845    2.45136095840006   -0.17400438777692
C         4.41618539478027    1.72084664166143    0.94197744308356
H         4.77719049413589    1.08998486419661    0.14098685117459
C         6.23963874814763   -0.64570039117139    1.35268530054979
C         6.86466057620525   -0.94281256601273    0.14735430601092
H         7.60936581942133   -0.27394646478261   -0.26104681965239
C         6.53149071154017   -2.10067766016870   -0.53623904364549
H         7.02789716489525   -2.33034472879510   -1.46860098622647
C         5.56858023677702   -2.95907272590590   -0.03502681525504
H         5.31590905028948   -3.86163528255926   -0.57186341811895
C         4.92622072066259   -2.65686748809832    1.15619697995354
H         4.16908679757503   -3.31972330639566    1.54840568492269
C         5.26753001498214   -1.51314708305084    1.84817211934654
H         4.78471477050432   -1.27640508469012    2.78978196637219

