65
CSD_code = LAWRAC | q = 0 | S = 0 | Stoichiometry = C25H37LaO2 | MND = 15
La       -0.26630188318953    2.54782065051890    2.83368419395447
O        -1.33728192742587    5.04863307168611    3.03765852503624
O        -1.99178222082769    2.82302986212292    0.80794011174730
C        -2.40394315264272    1.86318978735125    4.28935832251180
C        -1.83786185041710    0.61275943622535    3.92792908108989
C        -0.59055088996899    0.49473048338328    4.59446330376342
C        -0.39049406531554    1.66797451194246    5.37029487681479
C        -1.51773328328392    2.51208464354477    5.19261050928982
C        -2.52500890710779   -0.48140030456445    3.15122797379913
C         0.25865585775868   -0.74479573960190    4.65702292549000
C         0.71450696267483    1.87716330603396    6.36888371900185
C        -1.83985560932384    3.72782942345728    6.02061273101240
C         1.80945060254192    4.36002506547845    1.66774386244312
C         1.96519167746473    3.69362843449918    2.90366065216424
C         2.73634056426268    2.44841243572698    3.08366689327352
C         2.44845683530479    1.25332456973768    2.54634350739814
C         1.29431309570393    0.94167095336024    1.68053828756575
C         1.10124927652732    1.47521346771180    0.39075194405312
C         1.56431568216773    2.65843476088766   -0.20434636979142
C         1.86550799904919    3.89735650400683    0.34503566617826
C        -2.68972731333372    5.34312681611452    2.71296724723062
C        -3.11465220455465    6.52138999571994    3.60750139153167
C        -1.78418031488123    7.06792597985607    4.14691529843531
C        -0.73924442609553    6.30190017727100    3.33024245235093
C        -1.72386599968391    3.51549960624983   -0.40569104669462
C        -3.09121742081431    3.91348306695622   -0.98793366504029
C        -4.08159082811613    2.99749243302027   -0.24984738471194
C        -3.16387029902005    2.06213017141775    0.54493753590401
H        -3.42714807292114    2.16924706705327    4.09156671252117
H         1.71266497306915    5.44419108397769    1.74646168223940
H         2.10167682932297    4.38418601284781    3.74521415428883
H         3.58263565550473    2.53108813124348    3.76176064291308
H         3.07169950647950    0.39914874388448    2.80017341357654
H         0.99257624698186   -0.10858326912085    1.75566574557909
H         0.56084672441101    0.81940928407759   -0.29497553187417
H         1.51355670874748    2.65461180622312   -1.28979833671792
H         2.00545501909317    4.68626374015920   -0.38889334780734
H        -3.56036356835438   -0.21008006144069    2.94532909875734
H        -2.53197353305977   -1.40451242157561    3.73291710151105
H        -2.03009355561572   -0.69412719242085    2.19889935821799
H         1.31944727181283   -0.49830212739918    4.69070837448982
H         0.07840810195766   -1.38806124283133    3.79744804652993
H         0.02280561356202   -1.31627875210128    5.55882454964835
H         1.65645701826406    1.46453777932254    6.00812103367668
H         0.47375325014762    1.38114627336006    7.31291427671377
H         0.86056156981340    2.93653474373534    6.57762206819407
H        -2.74367409967557    4.21166164325554    5.65400610681937
H        -1.02513446181290    4.45481736587533    6.01699209744810
H        -2.01302290003074    3.43611828327257    7.05974809749271
H        -2.75754708325778    5.62939505791772    1.65342201662589
H        -3.27582287808574    4.43824145463103    2.88079566619241
H        -3.65636381294508    7.26946782428520    3.03106677008582
H        -3.75834425224169    6.18818953366013    4.41919775229137
H        -1.68876316021726    8.14342140026124    4.01675898445864
H        -1.67627676352864    6.83536593082296    5.20505046576736
H         0.18910949356289    6.12049683540053    3.87238711425896
H        -0.51704504184568    6.83652268619758    2.39413047962309
H        -1.07677054964818    4.36302945410442   -0.17602218718636
H        -1.19259972471314    2.84975480692164   -1.09778549216098
H        -3.31146549752020    4.96267640495419   -0.79745050069711
H        -3.11326283100826    3.75433180966846   -2.06397573744356
H        -4.72510434163078    2.44447096961052   -0.93006375085721
H        -4.71047299462144    3.57544716777680    0.42689851142998
H        -2.90479258427648    1.17789890502192   -0.05457162914698
H        -3.58233823320703    1.74153929723782    1.49858364677618

