56
CSD_code = LAWRIK | q = 0 | S = 0 | Stoichiometry = C25H29PZr | MND = 13
Zr        0.02761943336006    2.33321733261940    3.16273733786263
P         0.36254573590969    4.93690799328315    4.01055257154838
C         2.20209964205852    2.11336433497313    1.89842321316225
H         2.33689623036256    2.48263523468917    0.88887947615794
C         1.77539834020052    0.81320984047517    2.25150182852153
H         1.56099533030794    0.00887735840341    1.55638001574929
C         1.86075908468299    0.69592764299785    3.65631350096145
H         1.73558041230266   -0.21970084302735    4.22238794964745
C         2.31846009225772    1.92414848695324    4.17130341567286
H         2.58527707180668    2.12223631119305    5.20348025616535
C         2.53832288232351    2.79553595944516    3.08351518065824
H         3.03380084879309    3.75680164315840    3.13810894235886
C         1.36161024430018    5.68666229070674    5.38645140593240
H         2.39995803411570    5.37079472106489    5.29797593796462
H         0.97685812300998    5.33843519678576    6.34407465225114
H         1.31426398873592    6.77468249856115    5.35674792281387
C         1.02334540248695    5.94304477215766    2.61052328389852
H         0.53506850333065    5.60078350729195    1.69570370785653
H         2.09694452252156    5.79166231109953    2.51095164774097
H         0.82935108957282    7.00369680136784    2.77266042553026
C        -1.21404096410539    5.84731210161885    4.30538921326029
H        -1.93277365536961    5.56884557164324    3.53608162964911
H        -1.04451327931581    6.92412264747045    4.27639943679510
H        -1.62230505796916    5.57982039529594    5.27840230273244
C        -2.87848706540932    0.77254324359586    2.25424909164375
C        -2.48338010494885    1.71292859484910    1.06351764969942
H        -2.65626767726566    1.16577663225582    0.12920383989788
C        -1.02948588033438    2.10919183846676    1.31174255194491
C        -0.92177920917452    3.46190752482597    1.53398273804882
C        -2.21988291849968    4.07590465331916    1.23068247315792
C        -3.16734108855186    3.05682595649760    0.98083408350644
C        -4.45832497255759    3.37169362427992    0.61749026074270
H        -5.17796939694358    2.59979322982235    0.38313503014721
C        -4.83417840264561    4.70838739776874    0.54068394434435
H        -5.84848073827390    4.96493425437645    0.26903862395593
C        -3.91316703372653    5.71303031694379    0.78535886870404
H        -4.21622839858028    6.74788972762655    0.69745039334335
C        -2.60223550587756    5.40781324433086    1.11792906070001
H        -1.88160593828061    6.20448455035300    1.25374498095460
C        -2.18258114774822    1.23186272819031    3.52721208803668
C        -2.34353089921411    2.48590912854202    4.15965357741430
H        -3.07216877142696    3.23868483310668    3.88736058374418
C        -1.47731634673873    2.54271512377454    5.27148725517971
H        -1.47260833790871    3.31070641128777    6.03641601871836
C        -0.77388142141344    1.32532425808796    5.34053397636485
H        -0.14456059555218    1.00494730867473    6.16379469948234
C        -1.20192601019656    0.51552672049283    4.26339621145630
H        -0.93421733823698   -0.52584244954607    4.12876971788972
C        -4.39376704370640    0.73685515266800    2.47921447479445
H        -4.76691298077480    1.71859135991031    2.75648945908143
H        -4.62746231793194    0.04156474483016    3.28372234509892
H        -4.90688816031117    0.40761546971902    1.57809045659510
C        -2.39386648217083   -0.63446301466878    1.87895815343269
H        -1.32131706395816   -0.61383161760762    1.66981875692420
H        -2.91377489741338   -0.98360082788925    0.98853552730610
H        -2.59522790990723   -1.33989422911178    2.68275785279700

