51
CSD_code = LAWYIR | q = 0 | S = 0 | Stoichiometry = C22H18MoN4O6 | MND = 8
Mo       -2.01886145384725   26.38686869440862    2.78509852147854
C        -3.35044073828996   24.96469785217822    2.68651172907375
C        -2.74722025258647   29.25090989917025    2.69888221228789
C        -3.52150653769004   30.41014089687955    2.70892024461371
C        -4.89334980157161   30.31225884508818    2.56147421035087
C        -5.45473803714842   29.05555354192186    2.39897741671380
C        -4.62040449766679   27.95153353620532    2.40244291986510
C        -2.45250312504816   25.90757658373757    0.61053836154495
C        -1.47646792010243   26.93442878097485    0.70819664453033
C        -1.73845003795628   24.66426398252328    0.22756000828706
C        -0.15776861896194   26.31770807567312    0.46662456291973
C         0.65372225083296   24.02535575457263   -0.09415873006510
O        -4.13032524927913   24.14183614108918    2.54273324357736
O         0.93581060404265   26.84449112783787    0.51197644809284
O        -2.18591752535334   23.57491158082070   -0.03437672188526
N        -3.30537691478227   28.03624764498229    2.55365603429414
N        -0.38704734817167   24.98758920327061    0.17411035701657
H        -3.06297098809755   31.37542633627516    2.84844429950564
H        -5.50907423100061   31.19803137384757    2.57853337421271
H        -6.51824555108076   28.92700463382857    2.28596791092888
H        -5.02718125794931   26.95663977025653    2.28955330305737
H        -3.44654179432338   26.05956463148902    0.19563554395821
H        -1.63178763059487   27.95324077143866    0.34944954492128
H         1.55507776608826   24.57288376220393   -0.36380371365077
H         0.84704726871294   23.41146737566327    0.78774750083012
H         0.33670963632115   23.38006020053918   -0.91221509446511
C        -0.68676588428713   24.96508855649146    2.88332633622678
C        -1.58501099530696   25.90711787530939    4.95964383619253
C        -2.56069871615089   26.93430836484615    4.86209877431176
N        -0.73235995992937   28.03642315161910    3.01656593059737
C        -1.29066821445379   29.25100363846257    2.87109508097343
O         0.09310233116464   24.14216616619252    3.02690436765468
C        -2.29955765780606   24.66392524280023    5.34213474430839
H        -0.59102163456801   26.05867909796886    5.37482362915286
C        -3.87963950861272   26.31798181335284    5.10326396577337
H        -2.40511240770524   27.95301060595619    5.22104263435002
C         0.58268323716412   27.95195881997688    3.16789581786424
C        -0.51654056431875   30.41034631367542    2.86081297262782
O        -1.85251367117336   23.57434225424732    5.60382562150523
N        -3.65086388635181   24.98772736557715    5.39554156835544
O        -4.97304345817824   26.84514781186484    5.05782733599498
C         1.41685475875236   29.05611415099539    3.17119605280431
H         0.98961326300413   26.95715039478647    3.28098185769305
C         0.85530415967818   30.31270314859606    3.00834940055767
H        -0.97520825988626   31.37553036973473    2.72101337079475
C        -4.69206937184495   24.02584895589266    5.66339736236389
H         2.48037401673696   28.92776262248432    3.28432118759491
H         1.47090052071110   31.19856291361095    2.99109574064328
H        -5.59394803659127   24.57382300777356    5.93032025645005
H        -4.88358763559843   23.41048120365085    4.78216415674563
H        -4.37681043895883   23.38190515727702    6.48317786647494

