43
CSD_code = LAXBUK | q = 0 | S = 0 | Stoichiometry = C17H19NO4PtS | MND = 4
Pt       -9.87916579356345   -3.53670563026624   -9.24337389379529
S       -10.50228606478752   -3.03462085606691   -6.94643350724384
N        -7.91685537784438   -3.34760654205804   -8.48513357957705
C        -6.85357398250810   -3.63474182327724   -9.21776386329123
C        -5.59214444584695   -3.08201858125100   -8.93275901167011
H        -4.75567429269946   -3.33651923227550   -9.56495027128077
C        -5.44164912609522   -2.22760487311890   -7.87538441255999
H        -4.48615550945715   -1.77982443416455   -7.64626689983118
C        -6.55611156575815   -1.93073772828931   -7.06154841248326
C        -6.48357834364524   -1.07622560402687   -5.94508798939814
H        -5.53427303890525   -0.62201841156618   -5.70304653840703
C        -7.59208049772165   -0.83475927202244   -5.17941918749408
H        -7.53351744114798   -0.18393057006022   -4.32072769270342
C        -8.81020951267372   -1.44773021058145   -5.49230666779309
H        -9.67320551176664   -1.27658611861064   -4.86697616688399
C        -8.91857766681902   -2.26864765393277   -6.58677385618680
C        -7.79635929018013   -2.53102860797157   -7.40579463770060
C        -7.03582451874457   -4.56957450096424  -10.36537140482887
H        -7.94920346692027   -5.15211504437385  -10.21877322229453
H        -6.18041154349079   -5.23364372460024  -10.46605736844775
H        -7.14144772047170   -4.00055581160787  -11.29007257286213
C       -11.42216118211714   -1.53648701620229   -7.45768840537195
H       -11.46678272373035   -0.84240383759248   -6.62349758773769
H       -12.42101938588029   -1.87050782157733   -7.72151492117388
H       -10.93981681125502   -1.08041918292594   -8.32000175286768
C       -11.44736024820955   -3.44256492081358  -10.57503487782465
H       -12.04703418131213   -2.53307653826701  -10.54934546233587
C       -10.19306463497170   -3.41828225047778  -11.28956074743647
H        -9.88885929441113   -4.23893299385280  -11.93077985627891
C       -12.21102020296186   -4.69129227705099  -10.50648144390244
O       -13.41348786157758   -4.80197404484052  -10.44512694552260
O       -11.37801393612375   -5.76732446788229  -10.47105704541935
C       -12.00934282942425   -7.02966752485144  -10.36369598527177
H       -12.62371738311947   -7.07315960261816   -9.46135060632655
H       -11.21338107666099   -7.76895993764765  -10.31772654990538
H       -12.64977612999436   -7.20965843073250  -11.23062523814204
C        -9.58246394282822   -2.11711779148429  -11.53598104604253
O        -9.91454298919201   -1.05688898204821  -11.03617182838739
O        -8.53407013459993   -2.19954992125254  -12.40364823442977
C        -7.84577889288217   -0.98636969282506  -12.64663865973960
H        -8.53769064532120   -0.22058837496937  -13.00315409739878
H        -7.09636017270260   -1.20552052884108  -13.40366849040962
H        -7.37015062968809   -0.62695863014147  -11.73022906134157

