95
CSD_code = LAXBIV | q = 1 | S = 0 | Stoichiometry = C42H48AgN4(1+) | MND = 2
Ag        4.55247835762877    2.05625341908753    4.91614876507779
N         7.52625777686502    1.78652238007690    5.81848167577532
N         1.61631582286042    1.73570897863639    3.91286207801207
N         6.26206879480657    2.05245062703931    7.52277391646917
N         2.80836615537310    2.67928182883594    2.40882830605046
C         6.24129393965659    1.95438436140407    6.18087324654156
C         2.86447417743912    2.16495333011263    3.65094766188373
C         7.54080074554419    1.94958022685147    7.99599796935214
C         1.54387674172685    2.57634133236445    1.89879350030450
C         8.34154153430600    1.77702585750055    6.91619005132973
C         0.78933862581813    1.97472098658241    2.85047533749508
C         7.96088828361483    1.61132031428805    4.47540968007575
C         1.23076074416428    1.09366949094292    5.12217492825494
C         8.05047769142364    2.71557711514012    3.62835293024018
C         1.05014765426426   -0.29140762983159    5.12218004818297
C         8.52986392299854    2.52058336378503    2.34152674082776
C         0.63787052531941   -0.90087517787554    6.29534142184674
C         8.89501819535015    1.26288483462957    1.88574016743456
C         0.39645447467128   -0.16602512845784    7.44974268206772
C         8.76397400369368    0.17673222394481    2.74249134442442
C         0.60053563352599    1.20527125664432    7.42311587010581
C         8.30444497255545    0.32939537886006    4.03991285827289
C         1.02730619378945    1.85367941059715    6.27367251653191
C         7.63543679406150    4.07902611456522    4.09204435508214
C         1.30500846250750   -1.09299781992531    3.88156433895217
C         9.42206521762786    1.06263317771895    0.49943311149769
C        -0.07325680998789   -0.85671820709935    8.69154091332629
C         8.17000581944656   -0.84840694534997    4.95715237300085
C         1.26676328731225    3.33321431354607    6.27403245418110
C         5.10670540639802    2.26176419371151    8.32571424673174
C         3.91472545101064    3.27210864297337    1.73952767256515
C         4.86810942169216    3.53591302139571    8.84581972911690
C         3.98873638563640    4.66469707775879    1.66148537703949
C         3.76204899674900    3.71769479729387    9.65910579434246
C         5.04841149939034    5.22917102444457    0.97137269143068
C         2.90644703702920    2.66704440098162    9.96731927120777
C         6.01696403119994    4.44360427482558    0.35836223660922
C         3.15957432452140    1.41771878096287    9.42140937095800
C         5.92651498655447    3.06430302024998    0.46930353738680
C         4.24756261635758    1.19552375640228    8.59038437973077
C         4.89006011874639    2.45838647154801    1.16378870177691
C         5.78704631926797    4.67504633388448    8.52257002059634
C         2.94714994053383    5.52050325174012    2.31664501596063
C         1.73704212597983    2.89568161731064   10.87289415157754
C         7.13167744378460    5.08948016949015   -0.40329861662510
C         4.48841901030056   -0.15631850184901    7.98975240372734
C         4.82543757022214    0.96687248674370    1.29548496644861
H         7.77253282624052    1.99679499801300    9.03992078872350
H         1.28998507864694    2.92294900856536    0.91842307191594
H         9.40299594859774    1.66055000542108    6.84229654557975
H        -0.24837519899115    1.71249658558659    2.85982470026667
H         8.62546961439728    3.37379252839930    1.68792938859984
H         0.49217805287661   -1.97093126213300    6.30960192702164
H         9.03485810468847   -0.80845020826858    2.39250556018849
H         0.41775918836285    1.78952642650436    8.31167519537112
H         6.54646003288774    4.12079939076494    4.20553100722538
H         7.92636929647374    4.83247882532521    3.36646249133929
H         1.28346272506597   -2.15568405418109    4.10456389593095
H         0.54707489916505   -0.88935158175408    3.12553672645498
H         8.08719368521341    4.32357845598897    5.05245201401307
H         2.27810578003591   -0.84579579307106    3.45624960859377
H         8.79756113346465    0.35855093063680   -0.04909102568876
H        10.42756942106404    0.64653235454649    0.53625042107855
H        -0.23365761999635   -0.14752816946538    9.49900441083786
H        -1.00905821901612   -1.37926680667199    8.50066514827492
H         9.45865367876803    2.00133782136390   -0.04667778578603
H         0.65520970896339   -1.59980986921987    9.01395113736185
H         8.91419723674586   -0.80767170045640    5.75218102120173
H         8.31104851971754   -1.77522357844746    4.40885278005413
H         0.90074715635923    3.77743177159353    7.19464629044281
H         2.34041701502671    3.53937115328642    6.20204428147250
H         7.18352967328958   -0.86473799598640    5.42137007469557
H         0.77091649741739    3.81314539423884    5.43137425530614
H         3.56646601293103    4.69695298033738   10.07052763948591
H         5.11746779641432    6.30467330659702    0.90074637160472
H         2.50332227097333    0.59221895416031    9.65011403784551
H         6.67185297509680    2.44071883143968    0.00020362984323
H         6.75226122177998    4.54533824998699    9.01156639281557
H         5.36043782178716    5.61506770686336    8.86001960015938
H         3.24857258695518    6.56378728107403    2.30305174922555
H         1.99288038198529    5.43581167163130    1.79729634600861
H         5.96091356262171    4.73696597526348    7.44790361590067
H         2.79373363754320    5.21546969961534    3.35223898299035
H         2.07739585542676    3.25197356051621   11.84376981355370
H         1.17048326340145    1.98050693828679   11.02192839860298
H         7.79895554157298    4.34560344016110   -0.83004584303367
H         6.73113223172588    5.69758242846071   -1.21269783461087
H         1.07633606174160    3.65688847864676   10.45961760190706
H         7.70672220965833    5.74875569971796    0.24588600151154
H         4.28825150208002   -0.12902706916906    6.91302897705910
H         3.82793128833614   -0.89380781666468    8.43550977552290
H         5.56312079047338    0.49582356267832    0.65302516390727
H         5.03886847016694    0.67274880049614    2.32899031572844
H         5.51960946857676   -0.47490366575177    8.13608946967662
H         3.83827038973927    0.58989212070202    1.03154367059709

