106
CSD_code = LAXBER | q = 0 | S = 0 | Stoichiometry = C45H54N5ORh | MND = 5
Rh        3.83972462050281    3.07010990381560    5.23220799077858
N         2.30951908673173    4.39086283166195    5.24604397233390
N         4.43369010196568    3.75559697126395    7.03078947474349
N         5.28763659982277    1.67119901530250    5.27133591486262
N         3.14770227654562    2.28347552925662    3.49807256410755
C         1.35003694319785    4.53456367509571    4.28678046624447
C         1.21156977252419    3.73888831766542    3.16185994112668
C         2.04701366014757    2.69390874428605    2.80104528932519
C         1.89458599537368    1.90435241505194    1.60282683320430
C         2.93415496901244    1.02254369977219    1.58502775912792
C         3.70419536301097    1.26759922579052    2.78054751762851
C         4.83117838880607    0.55359521960419    3.14909126353368
C         5.55316484233892    0.73937352979451    4.31365755597352
C         6.70149077880130   -0.05260140694213    4.69349931656946
C         7.12409934262579    0.43073619366147    5.89358591464353
C         6.23360601297556    1.51688501412185    6.23661542312734
C         6.34628110672352    2.28310391343862    7.38217124378405
C         5.50689212107092    3.32055047766283    7.74395917492199
C         5.66382933014398    4.11420758662931    8.94200048762394
C         4.66445420221933    5.03741756425177    8.92866928582268
C         3.91104210142925    4.80915763475722    7.71659433071871
C         2.82068869547062    5.56308063391056    7.32371957030331
C         2.08389082874530    5.36727188058360    6.16887054960942
C         0.95058686006674    6.17104532198023    5.77705384221822
C         0.49059956613261    5.64956908697866    4.60539766633500
C         0.79994298809402    2.07040516773079    0.60121828302970
C         3.27641999594441    0.01274403821344    0.54173087393149
C         7.24766711452595   -1.19670117469215    3.90627931709251
C         8.24686147185989   -0.05304472141755    6.74867514146335
C         6.70894962946726    3.89572511784605    9.98487594287907
C         4.39871744150417    6.13023966425756    9.91010958658331
C         0.45515629203160    7.36497406533290    6.52202863559826
C        -0.63421452440686    6.13077548253726    3.75118906165530
C        -0.11991740922202    6.98748372452148    2.59134968087882
C         1.09289349704184    3.20314821010179   -0.38575772349869
C         4.36865052216968    0.53564571276524   -0.39485552206220
C         6.43789383161604   -2.47336401024566    4.14657873926591
C         7.73708436086861   -0.94754006343404    7.88153519712585
C         6.32048057312582    2.75015558577289   10.92320993444219
C         5.00708674169312    7.45075249978398    9.43060039127321
C         1.32602252484761    8.59202475662131    6.23961898932963
C         5.01098154846124    4.38479430561343    4.32269720412414
C         5.02822348058310    5.99195781985593    2.48332239875412
C         5.36974958897064    7.20864148488207    3.07349766054248
C         5.93931299157789    8.18850241531898    2.26988526593454
C         6.14899932450072    7.96987899346760    0.92136702934204
C         5.79057733648490    6.76173679139762    0.34905846747769
C         5.22973323798254    5.75671269072161    1.12141150308002
C         4.84964048085154    4.43179368966831    0.53216067863937
C         5.11632018121723    7.45261351637417    4.52703531717911
N         4.42854681334249    4.96696231245506    3.25891614079542
O         6.10806797981635    4.61745248994615    4.75343673020364
H         0.37923379960397    3.95039702263088    2.50906514099700
H         5.16424958743540   -0.22304547792738    2.47875638501876
H         7.16828879660287    2.06093154224679    8.04439531322589
H         2.51681005792467    6.36948346495310    7.97240642107333
H        -0.14221497981173    2.27389209559181    1.11584755368693
H         0.67684758785117    1.13961414631140    0.04385837925521
H         2.38625680978224   -0.22366850514301   -0.04469640309464
H         3.61632236305790   -0.91120281919893    1.01541580089929
H         8.28604796614797   -1.37334608962563    4.19356628853088
H         7.23610912219448   -0.95388529659071    2.84103805975259
H         8.78317688830588    0.79962797905854    7.17134874761458
H         8.95291647601345   -0.61890926400631    6.13771458728404
H         6.83873025214251    4.80940844400927   10.56756814824821
H         7.66514379654341    3.66953276276944    9.50805782734859
H         4.82865956436226    5.86535880163159   10.87780378290750
H         3.32218476276798    6.25296603660379   10.05003893885447
H         0.45397736696253    7.15975715811287    7.59524575778392
H        -0.57312467418999    7.58044539862368    6.22495267203753
H        -1.32289482551485    6.72478536810443    4.35508489012599
H        -1.19253417348886    5.27904931338882    3.35509080594557
H        -0.94771967339697    7.32782091990504    1.97300974807818
H         0.56882599332503    6.41967241189979    1.96958756101889
H         0.40935892133252    7.85821894469272    2.97104888268279
H         0.28235957562037    3.29715158267848   -1.10515420802978
H         1.20083738551923    4.15225761696773    0.13574756540726
H         2.01332890689993    3.00265726831296   -0.92956471182697
H         4.03071643665918    1.43524449729025   -0.90398079349860
H         4.61746802359595   -0.21305161177371   -1.14380369218317
H         5.26796120741844    0.78123344821872    0.16528771838174
H         6.83704932390855   -3.29485734478833    3.55534215869296
H         5.39541162504966   -2.32200267542586    3.87567398360086
H         6.47748816733812   -2.75241650951688    5.19688884191379
H         7.23814520683980   -1.82426058255184    7.47488110160296
H         7.02390172221853   -0.41005007081716    8.50224603806963
H         8.56353095396702   -1.27902630973857    8.50661658315897
H         7.09334769621616    2.59167618049183   11.67236237659144
H         6.18277932491128    1.82755679647563   10.36411757852415
H         5.38652152045528    2.98030221431443   11.43144023345122
H         4.80261580505355    8.24694167585700   10.14341330641303
H         4.59564069727299    7.73160970990198    8.46390364913168
H         6.08429731891590    7.34907154865544    9.32098521817639
H         1.31347072970274    8.82763158701528    5.17788113400452
H         0.95720107397119    9.45484975950856    6.79002535273663
H         2.35669149627207    8.40602337355108    6.53275701234073
H         6.21408435517772    9.13597865687528    2.70995223384288
H         6.59152110418672    8.74368746085859    0.31185241603130
H         5.95618172969180    6.59314826041752   -0.70509984528390
H         5.26605242508180    3.61807455055337    1.12498809505455
H         5.21527562087170    4.34795557632095   -0.48790102332384
H         3.76596614960341    4.31083284963607    0.51940141619259
H         5.86289988726521    6.93182865911504    5.12686989729376
H         4.14034071441696    7.06425911919609    4.81684534607043
H         5.16371943808454    8.51540080044957    4.75160991511199
H         3.58186101052108    4.56292400912087    2.88031153933810

