57
CSD_code = LAXCIX | q = 0 | S = 0 | Stoichiometry = C26H24As2Cl3ORe | MND = 6
Re        3.36537459901854    2.14848141803187    3.75968485296291
As        5.57942463863671    1.39987874111678    3.03238424296372
As        2.44131696670907    1.28170271112047    1.64037767317905
Cl        3.23896861431987   -0.18636857906784    4.17225984053685
Cl        1.35448852557608    2.36947518002735    4.85065822193114
Cl        4.45061721849357    2.41516348623997    5.78094382256011
O         3.53556270900802    3.62624315885124    3.00349983684655
C         5.29578620413033    0.77722747369650    1.15817293896632
H         5.39242620448459    1.69204894768741    0.55573803974009
H         6.10001120064585    0.08850294757186    0.86258210424095
C         3.91700007771952    0.14832692818101    0.93395523855563
H         3.83190971181071   -0.80543676775996    1.46859984372232
H         3.74741475270783   -0.04386359918402   -0.13533282345816
C         6.54604792791955   -0.01067515166337    3.93536640177876
C         6.41312428479939   -1.34937365628512    3.58324219210420
H         5.77844235079362   -1.62780587877411    2.74866819315257
C         7.06831276231386   -2.32371580640626    4.31675762038495
H         6.96079876469959   -3.36386828750698    4.04564336463866
C         7.84750185133738   -1.96831508527781    5.40526550564440
H         8.34837163129476   -2.73243220130135    5.98097425893739
C         7.97632173139084   -0.63584546173826    5.76492907845513
H         8.57420101323265   -0.36191620465358    6.62165994087184
C         7.32737072322447    0.34277483720093    5.03396321462397
H         7.39958372494520    1.39127522196987    5.31276924755140
C         6.97494471478059    2.73076853590496    2.77701252145323
C         6.66862204156508    4.07581357227096    2.93670277845501
H         5.65460150890824    4.35887074998788    3.20740150468188
C         7.64851582300902    5.03723305888664    2.75050617992087
H         7.40996908025869    6.08260997680533    2.87815968627807
C         8.93413155962488    4.65467485118012    2.40644160507621
H         9.69957380862284    5.40331038763438    2.26541587189424
C         9.24590249680567    3.31265418368905    2.24729248075457
H        10.25093960213160    3.01929936412785    1.98123148206469
C         8.27079427237367    2.34904321903016    2.43379342656185
H         8.50077669400457    1.29149468010331    2.32193088366426
C         0.90515198560569    0.09073669243238    1.53809852419298
C         0.09840286860888   -0.12862384540927    2.64699421675040
H         0.33092269326493    0.37010802999479    3.58226321111976
C        -0.99321113826837   -0.97679862797365    2.54638298934535
H        -1.61838437115894   -1.15070671311637    3.40947162302030
C        -1.28209194019371   -1.59896082237608    1.34401927933711
H        -2.13133172370472   -2.26206107251597    1.26913265415010
C        -0.48827079083433   -1.36852118146194    0.23039915196617
H        -0.72207846472649   -1.84802404606934   -0.70896067158150
C         0.60216302064848   -0.52256831529491    0.32322338846492
H         1.22630805776684   -0.31965762824077   -0.54444407192851
C         1.99864301902613    2.50532443017951    0.18574952020011
C         2.78777641256694    2.74514239316947   -0.93272637988665
H         3.70893946099072    2.19155596419974   -1.08032374292228
C         2.39954989770744    3.69559752641147   -1.86391858076875
H         3.01566528481040    3.87953969326859   -2.73234656252431
C         1.23104996201690    4.41438965115377   -1.68059891898903
H         0.93728501387899    5.15877566230004   -2.40558113292852
C         0.44242726828237    4.18660491554024   -0.56270120194460
H        -0.46443843252167    4.75445922298935   -0.41618950805464
C         0.82575089374852    3.23842537614518    0.36706566653819
H         0.23182123090738    3.05360574306973    1.26093927430466

