65
CSD_code = LAXCOF | q = 0 | S = 0 | Stoichiometry = C21H28B2FeN6O7 | MND = 6
Fe        3.11372152152203   17.48628643771885    3.72288944968946
O         3.27963866579588   16.56285008964704    6.40000057838166
O         4.26007472248533   19.86763630941156    2.69736931151856
O         1.83593062950744   15.26085198848777    4.93557132983423
O         1.82936306913650   19.72712833365615    2.55885748965972
O         4.26589078631176   15.08477055784411    4.71888917663245
O         3.21649891256673   18.41139078725507    1.04548715709894
O         3.22406822003924   14.15093466334333    6.58198553853796
N         3.55166072440712   17.57211520988774    5.55160141369477
N         4.17475058708366   19.03924840332700    3.75718469711870
N         1.66604950937784   16.39500883583936    4.22941455487788
N         1.66640719173359   18.59724059437234    3.27541832781927
N         4.14181922656693   15.91276238480284    3.65678216132026
N         3.48505811083324   17.38912050724609    1.88296484751265
C         4.91227467975949   18.60854304008717    7.33149621152627
H         4.87305755747927   17.62160718441947    7.78708438890683
H         4.31732362767879   19.29089483642554    7.93824553418651
H         5.93738406794221   18.96792255585330    7.30812158215257
C         4.35600157870955   18.51938990921034    5.94931922472885
C         4.63869384966165   19.44610064007515    4.90631194764722
C         5.37231869728698   20.73234141682677    5.09754783465895
H         5.16111475119977   21.38551441029956    4.25360664629979
H         6.44696714945423   20.55444769570425    5.13494182332461
H         5.06815322442738   21.21078980781087    6.02506157527133
C        -0.76895212672068   16.18657470624012    4.60062820291548
H        -1.28253554838043   15.68788811838637    3.77888237465170
H        -1.45146805280462   16.90181049345667    5.05271668337768
H        -0.47880002892304   15.43551084489836    5.33139878522656
C         0.45928191445853   16.87593196672047    4.10500070150214
C         0.45758553879530   18.13630286326079    3.44380366503895
C        -0.77285880072235   18.84854431086639    2.98774502007083
H        -1.22642607229386   19.39351227546008    3.81563253379487
H        -1.50065543143000   18.14139311859375    2.59854019382930
H        -0.49803502585835   19.56344198116311    2.21497699128844
C         5.23104108855894   14.17910073528488    2.27649709080825
H         5.04043081479180   13.54009404129041    3.13570825660867
H         6.30716021775587   14.32704181548310    2.18826564248990
H         4.87159520824293   13.70297571241631    1.36779079382730
C         4.54314876791893   15.48553332420937    2.49115880351438
C         4.23993754084741   16.41429719208248    1.45581176833149
C         4.72655969492160   16.28903203969417    0.04965214532639
H         4.14965489951892   15.53524396487662   -0.48565791731654
H         5.77371475513636   15.99703568916513    0.03399146698902
H         4.59905634962068   17.24366982296835   -0.45465101366918
C         2.28339143898195   14.08089494728275    7.62906460325567
H         1.27979103117757   13.88781338045609    7.23730550455434
H         2.26637506057495   15.01144006589233    8.20325660280586
H         2.58908218123367   13.25575060901173    8.27238080454716
C         3.09290636184020   20.94058448640008    0.71531247546946
C         3.84346643066723   20.89916919618721   -0.45699246069485
H         4.42685971779236   20.01588820791101   -0.66809352754033
C         3.85432874351399   21.95349525008301   -1.34775371032417
H         4.45016557498578   21.88182493567572   -2.24522883449842
C         3.11015857329683   23.10714449678248   -1.09889923527721
C         2.36154988468308   23.15470523588995    0.07831310422896
H         1.77725510825693   24.03888321195810    0.29631534987745
C         2.35432010029489   22.09463142291224    0.96247543990612
H         1.76519592168149   22.14809498711763    1.86542248554412
C         3.08050334802016   24.25063357972677   -2.00197859338696
H         2.48887389367087   25.08618763247578   -1.64570049500071
C         3.68621445416228   24.35473835557535   -3.17914899233900
H         4.28663385887607   23.56517139440172   -3.59718409270432
H         3.60248437518951   25.24730463697192   -3.77565757000934
B         3.15923549299811   15.21710028678843    5.69056099314118
B         3.09445168370120   19.72681206443108    1.75428515744141

