93
CSD_code = LAXDIX | q = 0 | S = 0 | Stoichiometry = C38H50N4Zr | MND = 6
Zr        3.24824122203519    4.93091743955789    4.06624037130394
N         3.96586388388563    5.84345667973728    5.96527340903189
N         2.88096561566151    7.07880692792613    3.66187650925125
N         4.04634166809697    4.97344276440478    1.98911581810913
N         5.08138143116952    3.70671027380389    4.29843182853358
C         4.70031468097964    5.19345993112609    6.90948367064685
C         4.52370075276571    5.83201167861948    8.19984652204933
C         3.64213876518147    6.85681801453576    8.00904970899351
C         3.30828712985125    6.85419116072805    6.59942952199123
C         2.50213181987067    7.79270022281065    5.96157217304286
C         2.34525539467764    7.92694483321077    4.58430323524532
C         1.69443599245949    9.03612298350374    3.91953624903311
C         1.87187241610506    8.84237903356311    2.57901131939245
C         2.60662571656229    7.60129225511625    2.43453977883423
C         2.96760185821171    7.02999965595735    1.21607608260382
C         3.61449440149149    5.81415625743296    1.00922885066819
C         3.89573067378206    5.24147927179250   -0.29342708538791
C         4.47517113334000    4.02623488279894   -0.06697952068051
C         4.56894699878719    3.87758163854754    1.37090774616296
C         5.17728763577002    2.81441742397560    2.03210378701195
C         5.46148840880033    2.76043555195184    3.39437732526782
C         6.29168692145732    1.76434614251264    4.03808101777218
C         6.41673798513987    2.14880982584190    5.34290992350186
C         5.63869833280818    3.36261538035976    5.49238702442924
C         5.48236072172596    4.06287654164770    6.68674207317687
C         5.22029695758713    5.43234117801329    9.45808673163561
C         6.65703201567982    5.96016676131302    9.48816074298027
C         3.13656009501407    7.84648473319773    9.00550538181340
C         3.94672457546650    9.14458542812513    8.96001377466932
C         1.02186269478960   10.17390241851601    4.61341334922068
C         2.03275322404365   11.23688217723458    5.05120931596318
C         1.44355546366803    9.72338427587507    1.45254142418873
C         2.60555092850224   10.58057669078401    0.94382232436006
C         3.61954643840047    5.90580383839431   -1.60130447252407
C         4.68599573296748    6.95495082781872   -1.92642342797963
C         4.98107069830581    3.03676836673106   -1.06349194482634
C         6.48625432507689    3.19713931495116   -1.29194258596441
C         6.91119741809641    0.59298400635365    3.35072521035045
C         8.21051090326808    0.98450445183859    2.64223359255244
C         7.21313861479773    1.49982234630107    6.42602637703034
C         8.54986007884670    2.21516113294496    6.63886964424481
C         1.26667558573829    4.58063906847132    2.98060450053612
C         2.28907118929514    3.42786349875361    5.49742353992234
H         2.02006792959331    8.53196093312217    6.58525929315814
H         2.68044586265486    7.57606571535677    0.32862427462189
H         5.53248117982246    1.99516599382567    1.42337490807101
H         5.99893981924626    3.66146213035786    7.54709800317410
H         5.23275050217499    4.34319545502093    9.54454804233409
H         4.67695004616652    5.82716102010279   10.31879453443500
H         7.15945099664083    5.64625936041576   10.40068597430390
H         7.21856673821823    5.58848011548177    8.63426917755057
H         6.66059880684945    7.04690099916997    9.44786253325825
H         3.19941301191185    7.42161425935325   10.00941530382829
H         2.08595290952639    8.06767093515757    8.80344668121671
H         3.54940371331894    9.86712735205706    9.66969703231436
H         4.98663514596796    8.94939959391021    9.21060430137871
H         3.91423309758726    9.57908802302044    7.96352513736541
H         0.48370210947529    9.80320277258614    5.48889927605176
H         0.29102779329136   10.63146572067794    3.94341113072265
H         1.53117699913756   12.04517479013070    5.57910930607198
H         2.78222996201434   10.80229567849882    5.70862006046281
H         2.54206579688264   11.65288977120356    4.18531436031616
H         0.63690561905567   10.37864747570265    1.78712381642422
H         1.05731666391764    9.11341521508954    0.63240397041067
H         2.28393376700438   11.20285114562771    0.11135602294100
H         2.97296051407065   11.22735299608574    1.73708516119723
H         3.42840134687127    9.95153459129524    0.61252162706253
H         2.63756480067864    6.38414116251682   -1.57369065203894
H         3.60155693333740    5.15714137112920   -2.39572968141787
H         4.46309455655719    7.44476057589383   -2.87197345659202
H         4.73112858641908    7.70901495029114   -1.14414713569703
H         5.66481877431672    6.48712862386049   -2.00174674923801
H         4.45956194691264    3.17268156999580   -2.01315452256201
H         4.77376366302438    2.02312328283088   -0.71266284585920
H         6.84646295572601    2.45108371879525   -1.99709672991767
H         6.70426268582028    4.18458357319088   -1.69159451301045
H         7.02786091405507    3.08346881460528   -0.35568717528770
H         6.20964434779462    0.18287214501140    2.62057011077600
H         7.12542755080311   -0.18964571043201    4.08147618880637
H         8.63458507870963    0.12759732235772    2.12314222287764
H         8.02671601181401    1.77545332865879    1.91877626213206
H         8.93906533560334    1.34748702224523    3.36311935865585
H         7.40439984979216    0.45717607825954    6.16465058265071
H         6.64478571841700    1.50935156612161    7.35915982625287
H         9.11013631000884    1.74391754852484    7.44366405500646
H         9.14812398957271    2.17501217467371    5.73165457461251
H         8.38827883008416    3.26057234157182    6.89097313699734
H         1.21814594644690    3.55036083244541    2.59013729027697
H         1.11559306093654    5.24922758345590    2.12264874891646
H         1.93640982413939    2.52210549271309    4.97935484910340
H         1.41421055429451    3.87643354997466    5.99713154539435
H         2.96646965580035    3.09016101599133    6.29305314399902
H         0.39680328734884    4.71704073499510    3.64233081832883

