40
CSD_code = LAXFIZ | q = 0 | S = 0 | Stoichiometry = C14H22SeSi2W | MND = 12
W         2.90894751284897    5.13847236878031    0.22698806507342
Si        4.87509480152809    6.26613128122317    1.37224929375986
Si        4.91527915030990    4.00431732657220   -0.84268204613603
Se        6.67356846622715    5.02897987064239    0.40574372369538
C         2.48632610464739    5.69255694480737   -2.00918211948620
C         1.23413926560037    5.68500586195300   -1.38051589360479
C         1.21474420163681    6.69878513708958   -0.38779609665193
C         2.45466204377151    7.35150974491706   -0.38464974181230
C         3.28690668843558    6.70823795906136   -1.37115053320785
C         2.43647848401338    2.92126723930881    0.82157374507301
C         1.19658924820108    3.57228074907695    0.77924326504762
C         1.17848442660359    4.58497767281203    1.77264168425272
C         2.40693107146775    4.57783820488288    2.44608824641158
C         3.23220577614722    3.56483051156341    1.83695414394491
C         5.16506930666847    6.15035764484097    3.27260541372276
C         5.33020239161765    8.11056595510552    1.05129626284887
C         5.23853377529401    2.11270858827267   -0.68063569475239
C         5.40107725452220    4.29521146062851   -2.68429554141601
H         2.74463394441920    5.16225144157101   -2.91261213589664
H         0.38043479336139    5.09409521504008   -1.68483392299817
H         0.34405880984973    6.99837346246867    0.18031544650119
H         2.68541102698184    8.27029725436438    0.13174511745795
H         4.17884939588390    7.14904430000722   -1.80403215803816
H         2.68447572887455    2.00242253877863    0.31390734008012
H         0.34745236767271    3.27043826734696    0.18058185535733
H         0.31372404163640    5.17434761846919    2.04711606298232
H         2.62967680291938    5.10856539052435    3.35833621904929
H         4.11656821611005    3.13206463314537    2.29449208157287
H         5.10486131669383    5.13182916241430    3.64029163237487
H         6.16177549135282    6.51612676045159    3.49704876540097
H         4.45576865851785    6.76065105340347    3.82325407805495
H         5.29655043454754    8.37601750356882    0.00039731887982
H         4.67496283020252    8.78236289936717    1.59693081593935
H         6.34434664353906    8.28475667837612    1.39596454223714
H         5.16653471491406    1.76578451477182    0.34435538895064
H         4.55037146901435    1.53624577343581   -1.29122507318319
H         6.24550361373799    1.89867200189150   -1.02379054134985
H         5.35373880516518    5.33957255459357   -2.97253964262285
H         6.42441632352082    3.96560744576174   -2.83204067347956
H         4.76874460198054    3.72383900853164   -3.35663869400438

