59
CSD_code = LAXFAR | q = 1 | S = 0 | Stoichiometry = C26H29CoN2P(1+) | MND = 8
Co       13.07718912988900    1.74908353331996    8.09115713054266
P        11.52555068125928    2.89682492718827    7.00779817586039
N        13.63669137759757    3.38575393296144    8.82249647401951
N        14.36391451522679    2.19401548976679    6.69861825526826
C        13.39142393309827    4.14847677594054    9.88964950439813
C        14.24433813968448    5.25334911587953    9.88877795804786
C        15.04594884108378    5.15433341090587    8.76304310368712
C        14.65354969392574    3.98109404318880    8.10735144019355
C        15.01694375598951    3.29055389236597    6.94733901441943
C        14.65132276360378    1.37698184959790    5.53181928901683
C        15.28114181961819    2.15193651764963    4.36774052390711
C        10.21675046057155    3.54294536826901    8.10294368608379
C        10.54602302931573    1.98598558385389    5.75844787289707
H        12.64378822324218    3.89728481788380   10.61958728917899
H        14.26575547225279    6.02478546293226   10.63255746794760
H        15.81609694383233    5.82865915394919    8.44710898316587
H        15.78952380325999    3.66830458486045    6.29092828370369
H        13.68885077564643    0.97218421715257    5.19347767608360
H        16.32492458213443    2.37950000915806    4.56773496742047
H        15.24530622609412    1.52964965505220    3.47736635643517
H        14.73923384025219    3.07519775637907    4.17541687269147
H        10.65218915239056    4.11516346904502    8.91860973983364
H         9.55107884427356    4.18319851899682    7.52358269222079
H         9.65140663123031    2.70999621733940    8.51774755890803
H         9.94107003513630    2.69605109026996    5.19428186241954
H        11.19063774980114    1.43525046700385    5.07709487997483
H         9.89000056107996    1.27968560403840    6.26310156946144
C        14.02069115672634   -0.02525361708793    8.76415861045070
C        12.92998669851636   -0.33118755398070    7.90533644315575
C        11.75573386226831    0.18011840435959    8.49674931176500
C        12.12378052205383    0.85599704418054    9.69147481954860
C        13.52127661905497    0.69183672002040    9.86819554128242
H        15.03210185564664   -0.37612145381590    8.64340063249902
H        12.97690458247172   -0.98243421359077    7.04816994825314
H        10.74659615205355   -0.00900067405810    8.16648595583459
H        11.44007617690355    1.25392297379676   10.42440691145190
H        14.08960481717213    1.00094648696064   10.73033802602768
C        15.55913616687290    0.21524529071518    5.89309597125747
C        16.68754435798453    0.41728112127907    6.67739829374637
C        17.53204060587261   -0.63906114978736    6.97189639925984
C        17.25989699906905   -1.90496383579176    6.48010293488206
C        16.14181846189146   -2.11025477905580    5.68981014504216
C        15.29497038227608   -1.05489399604058    5.39870735080199
H        16.90354318055207    1.40139415132596    7.06939323525426
H        18.40483934906199   -0.47180772107001    7.58449672814182
H        17.91965455414729   -2.72736441568203    6.70859046243722
H        15.92922061389902   -3.09261094948170    5.29680633998767
H        14.42954346538534   -1.21857398763241    4.77151663463081
C        12.10537897388111    4.36359504139889    6.11286928167360
C        12.39402750371785    4.29195886607183    4.75268112877711
C        12.86072521823061    5.40858907560937    4.08219243285854
C        13.05477381448257    6.59904145999276    4.76370142195397
C        12.77346869169143    6.67345224584235    6.11842600701413
C        12.30438475342558    5.56182842481663    6.79371715984548
H        12.24480913028373    3.36894648106571    4.21261064096712
H        13.07347505976722    5.34921874980477    3.02538300066941
H        13.42241941840033    7.46692592121969    4.23891037539410
H        12.91973296537013    7.59997672121520    6.65153125409913
H        12.09209290933621    5.62850770247393    7.84976797325715

