85
CSD_code = LAXGOI | q = 0 | S = 0 | Stoichiometry = C35H38BFeN7O2S | MND = 5
C         2.23653052890922    6.82994875219992   13.04249818996580
C         1.72824441211806    7.20491503578145   11.78687193239978
H         0.71423229455576    7.44805863038300   11.54276403622216
C         2.80322235662898    7.15145504271461   10.92394789130419
C         2.84292939122439    7.43028372135478    9.46486317461421
H         3.16569719250139    6.54741776028060    8.91593096250864
H         3.54096085895890    8.23631384020436    9.24555880092970
H         1.85297305070878    7.71717998360900    9.12045082683870
C         1.50166092365414    6.61817987812438   14.27789092682303
C         0.31441169673769    7.30315625348046   14.54040037359895
H        -0.04456917614622    8.03640122325245   13.83370402683152
C        -0.39426514114568    7.05782960333518   15.70135361607194
H        -1.30907435541918    7.59905554366742   15.89492340525561
C         0.05892376088569    6.11947758093269   16.61465083910111
H        -0.50162240636371    5.92502316106327   17.51684439897145
C         1.23332772618275    5.42741239931306   16.36104587916879
H         1.58731565590812    4.68523568622440   17.06253566578064
C         1.94986418872051    5.67703667783389   15.20671281492681
H         2.86906955843734    5.13135538358216   15.00260483628167
C         5.82342919681719    3.39709044581263   12.96830085129949
C         6.40110338713672    3.02206009861307   11.74690433073294
H         6.80803521342802    2.06436528633018   11.49333700982119
C         6.30273653549426    4.13493588113583   10.93721878398527
C         6.75639702253490    4.29922023957259    9.53083444829295
H         5.91863094485463    4.53949307886166    8.87844778036896
H         7.21493395577206    3.37549853379454    9.18832956217986
H         7.48539087985061    5.10416594759899    9.45560963728900
C         5.58716765256272    2.54692046757805   14.12835709944600
C         6.56877319375107    1.67890619166188   14.59386433060801
H         7.53556036272853    1.66299379615895   14.11309964073079
C         6.31692630033426    0.86205139298991   15.68033743983709
H         7.08849666155938    0.19891155511005   16.04455178840207
C         5.08295204175324    0.89514407847363   16.30729126748337
H         4.89078149716916    0.25804176500407   17.15856751084219
C         4.09461923924214    1.74488303900279   15.83846190388253
H         3.12613029005135    1.76445482490177   16.31813780617598
C         4.34421609924057    2.56331489895327   14.75478494330744
H         3.57291726324970    3.21066981577785   14.36130188237819
C         7.15819172404650    8.15755374572747   13.88232308925968
C         7.59874976090106    8.98835915091816   12.84309440222701
H         8.29678892984006    9.79708291316915   12.92008392085702
C         6.96875716579942    8.51723149114832   11.70894830030756
C         7.07529666403040    9.01272470981984   10.31161808968174
H         7.74496685143961    9.86798706242891   10.27941239149151
H         6.09927396225969    9.31367523810795    9.93476408002415
H         7.46451391228466    8.23557944575899    9.65634079286660
C         7.66574610090963    8.18991777965395   15.25665376303830
C         7.52451746748130    9.32955802591653   16.04300918804626
H         6.97702477711631   10.18070663439985   15.66313494648273
C         8.07285763512254    9.37225779406081   17.31260279858917
H         7.94867204880566   10.25705283304809   17.91991755720575
C         8.77525981095538    8.28284504545492   17.80119376774219
H         9.20431027323328    8.31652717026605   18.79256487527001
C         8.93254584534482    7.15162954734977   17.01536738264878
H         9.48192317879109    6.30268271577962   17.39402006465736
C         8.38334868568771    7.10193408166212   15.74680591045063
H         8.49663743656723    6.22397663287058   15.13182180873683
C         5.52852334852605    6.33586359426860   17.33287317033041
H         5.33452270278754    5.76204969925754   18.23810052544977
H         6.39553747106864    6.97623337750723   17.49787275234190
C         4.30216145772807    7.17922567394281   16.96600577750395
H         3.39340351857371    6.58748222912507   17.11107263740074
C         4.27210221402177    8.39832901977256   17.87728532726290
C         4.00217385244555    9.14656067311779   20.08505871702299
H         3.32788538724408    9.94113217401307   19.74664340551437
H         5.01884877354225    9.55323955755712   20.11752829310388
C         3.58152400984817    8.59574494633100   21.43324596396754
H         4.25988290430509    7.80502522229577   21.74119343921999
H         2.57635563266536    8.18755867773320   21.37376943900347
H         3.60015981485299    9.39024128656936   22.17346646675847
N         3.54886641327616    6.58983077741391   12.92040212458821
N         3.88214157996306    6.77837070275156   11.64289582671562
N         5.42277709642529    4.66587173556624   12.88865360549226
N         5.70560842440559    5.10856868001231   11.65349515284271
N         6.29630610410700    7.26272987641692   13.39849586171314
N         6.19545174745369    7.47967574091024   12.07898306947327
N         4.39372175822250    7.59972707933908   15.56791649491248
H         5.14646516175596    8.29195539801618   15.51513818497053
H         3.53944313507182    8.09316123427740   15.30952173296544
O         4.52618770123779    9.51516456032250   17.49739472510440
O         3.96992177820329    8.07951431681080   19.12965434310275
B         5.33893549259763    6.53654682265386   11.22874266212500
H         5.49861189121846    6.70929694094233   10.07483834052690
Fe        4.88539929898596    6.03130726011593   14.22883768775856
S         5.94266884275898    5.14725322961809   16.00994652725695

