99
CSD_code = LAXJAY | q = 0 | S = 0 | Stoichiometry = C54H40N4Pt | MND = 4
Pt       -0.90519939367208    4.11037944421868   11.23748197255785
N        -1.58024926706304    5.93662514516224   11.73175324028903
N        -0.26883624245408    3.81376217313376   13.14845284912849
N        -0.25501042404663    2.29829565163273   10.71066076449260
N        -1.89463481275480    4.17101568179652    7.12262872678297
C        -2.19555092685940    6.86834138614230   10.91363098598588
C        -2.55477532733495    8.02272403913991   11.69085580560459
H        -3.06596668754322    8.88369532692614   11.30675006610621
C        -2.13945733663603    7.79556221156854   12.95445164571119
H        -2.22411933376460    8.44261302195075   13.80550644251897
C        -1.53486434411333    6.48967347790711   12.97254421101266
C        -0.96593522847113    5.93985999533051   14.12764344296115
C        -0.36427945080941    4.69114261573878   14.18355707167954
C         0.22461409758906    4.11488523394544   15.36703012814295
H         0.27392748763273    4.59591972626566   16.32448592333357
C         0.67569930488654    2.89060192166957   15.02186934815459
H         1.18402875547449    2.17315879094410   15.63622807655245
C         0.35207868577237    2.70273834648990   13.62881299219808
C         0.64218787258301    1.56060575355978   12.89646477347361
C         0.33749140644184    1.39366107923628   11.53952214507066
C         0.61172269704426    0.18022655028034   10.82371777471144
H         1.05438106685125   -0.69833829886999   11.25021013434823
C         0.19590576227599    0.36923112169647    9.55128522245295
H         0.24219108151486   -0.32343654260263    8.73341716637432
C        -0.34361409517968    1.69603839937936    9.47506713721910
C        -0.85451181634298    2.23597279003780    8.30015140360899
C        -1.38732259612174    3.52918195795143    8.26300659140352
C        -1.50485055064646    4.39307896718176    9.36977480267245
C        -2.11568583244883    5.56704281931926    8.85061189226926
C        -2.31180798867995    5.38165986472586    7.47746717024921
H        -2.71542476522036    6.07573086349873    6.76591791595458
C        -2.45706315190363    6.73835617052772    9.56544018171278
C        -1.00460590211200    6.74209925929752   15.37165869648496
C         0.16835036260682    7.25799728435335   15.91231410609902
H         1.10693947450377    7.07788344375749   15.40791652285214
C         0.13417875821596    8.00115233771809   17.07842688306395
H         1.05090294818533    8.40062868943848   17.48783975559222
C        -1.07066304287132    8.23331354625289   17.72026812752947
H        -1.09637015728166    8.81210591631275   18.63196612575704
C        -2.24250173630782    7.72026604899524   17.18962663064920
H        -3.18453941882387    7.89623419483089   17.68879758499906
C        -2.21115411782366    6.98050182516377   16.02141973150707
H        -3.12366930093962    6.57558568393347   15.60765752018942
C         1.31760072178138    0.44564406336338   13.59658044664019
C         2.61234824096866    0.07421833525641   13.24841111416804
H         3.12075487336059    0.60812789610394   12.45843110854508
C         3.24681315600092   -0.95964734878017   13.91250894507026
H         4.25419554696716   -1.23681671840277   13.63705950282082
C         2.59515686524487   -1.63781372260917   14.92910861814396
H         3.09117468366399   -2.44593416193368   15.44648887238469
C         1.30542286592038   -1.27579869787191   15.27992725479054
H         0.79200740797155   -1.80325452495262   16.07092715359017
C         0.67059698967938   -0.23921655995499   14.62002334393853
H        -0.33748899389327    0.04177124673366   14.88921838053572
C        -0.79860650081939    1.35628154266300    7.10776939779839
C        -1.85747233104669    0.50323160956015    6.81469479680718
H        -2.72494861554415    0.49799340924461    7.45925665714327
C        -1.79543132955347   -0.33504731799196    5.71566438223387
H        -2.62158743730561   -0.99561256652783    5.49644573807228
C        -0.67465113205699   -0.33305447829651    4.90209778524152
H        -0.62643509056318   -0.98907048734001    4.04577483868079
C         0.38840863113908    0.50434890342914    5.19585003082636
H         1.26918448241089    0.49942818809372    4.57045963065209
C         0.32910004897962    1.34355116245646    6.29443703198980
H         1.16077731693286    1.99040660412053    6.53474467073379
C        -3.10817093492392    7.82847235833348    8.81885062803904
C        -4.30747542231498    7.59734369046155    8.14832734332864
H        -4.77776731683755    6.62800133144431    8.22795544628644
C        -4.90347188608510    8.60008163703414    7.40680567654485
H        -5.83589641819099    8.40859789637248    6.89589689482365
C        -4.30837790742824    9.84761541951833    7.31869467830559
H        -4.77286392945019   10.63043797692479    6.73700474982983
C        -3.11674256351606   10.08772132735923    7.98246227839408
H        -2.64829016146070   11.05900300825285    7.91612187215667
C        -2.52036434614482    9.08735269599912    8.72819879695726
H        -1.58300622275838    9.26968289232246    9.23302453528661
C        -1.96877406855142    3.65628981305655    5.76769474411878
H        -2.52856763701600    2.71567114521390    5.77705703952085
H        -0.95565057842412    3.44437897553349    5.40977055663294
C        -2.64499696902758    4.64553118380879    4.85815908018250
C        -4.03167055867763    4.69049895046767    4.77718540607436
H        -4.62048696951888    3.97171024415009    5.32915412169404
C        -4.66075771307917    5.65527861907993    4.01497805077658
H        -5.73942300476648    5.67440916850373    3.97735955582224
C        -3.92396808118378    6.60055277154381    3.30998430467212
C        -2.53830498980638    6.53523464751169    3.37466042737636
H        -1.94502720644184    7.25421177507146    2.82796560700239
C        -1.90412044455893    5.57279776642348    4.13916619793599
H        -0.82496049324440    5.54967359661372    4.18876545586526
C        -4.60317273848634    7.68485299723004    2.51209540486930
H        -3.82713940181015    8.29301105529898    2.03424117081813
C        -5.48748318503982    7.09264497034554    1.41327566746790
H        -4.90176724032384    6.44745257577815    0.76203062049637
H        -6.29700906415047    6.50571305678018    1.83959637894243
H        -5.92168605182196    7.88856784831123    0.81247069835928
C        -5.41623577466575    8.59255582889889    3.43846957613568
H        -4.78187749330200    8.99493348606074    4.22568630458926
H        -5.84131876407534    9.42046993279983    2.87555980956692
H        -6.22963137651086    8.03993906518666    3.90216153087193

