54
CSD_code = LAXJUR | q = 0 | S = 0 | Stoichiometry = C26H24AuO2P | MND = 2
Au        1.37571948438288    3.52462323795495    3.16705125719091
P         2.63849238562852    2.12507620926473    1.89235979994698
C         4.33497555624010    1.80737483929382    2.46197039682416
C         4.98360144164889    0.58236381314757    2.34977298266538
H         4.47366504489051   -0.26424353084431    1.91068317944324
C         6.28263541000941    0.45092879417809    2.80732124268131
H         6.78637630887964   -0.50082121012230    2.72006320069732
C         6.93747449618058    1.53209589812395    3.37447725906693
H         7.95100197883805    1.42141840163490    3.73035594898498
C         6.29195724930171    2.75310039976049    3.49054401195758
H         6.79976815698887    3.59441547392670    3.93828404471374
C         4.99310344392885    2.89015576346200    3.03950878055130
H         4.46919988216311    3.83322945519427    3.13587389555053
C         1.98522650816864    0.46172455811597    1.57994448592524
C         1.81902210228307   -0.35611648672608    2.69744707715732
H         2.13313591808228    0.00777946660957    3.66809600270543
C         1.26550837526710   -1.61349669272799    2.56021766570647
H         1.14540900723957   -2.24839324612981    3.42562132846186
C         0.85610484825544   -2.05549040859085    1.31083905492198
H         0.42011804216525   -3.03750123967754    1.20281278454382
C         0.99649604649839   -1.23564795217479    0.20360914386132
H         0.66803312721555   -1.57781249587078   -0.76701582258309
C         1.55484178884685    0.02429294682203    0.33285304412473
H         1.65879507883095    0.66520603173612   -0.53169485452149
C         2.91825396654754    2.79400800402077    0.22676914813561
C         3.94172833972171    2.32916317982372   -0.59437259843669
H         4.60814915119814    1.55468384933872   -0.23921969996073
C         4.10065573987762    2.86358312838702   -1.85915983934340
H         4.89461004828736    2.50491720940772   -2.49796175352815
C         3.24535383142575    3.85855618618522   -2.30781847240215
H         3.37507336257756    4.27278146612621   -3.29686850813444
C         2.22999362633375    4.32498539105703   -1.48924287540431
H         1.56889076238816    5.10466855455506   -1.83808868837963
C         2.06515426005897    3.79734317714334   -0.22065988670602
H         1.28558013170280    4.16107311822997    0.43654062686004
C         0.23509529770107    4.92079469668660    4.10996967534426
C        -0.56779086615597    5.69736467430872    3.25784688930658
C        -1.39968153212846    6.69083030396517    3.72981428959965
H        -2.01285555706220    7.28427195643683    3.06699648974749
C        -1.46177117442414    6.95049012786724    5.09538233315422
H        -2.11959686480137    7.73251631234530    5.44287956003265
C        -0.68649483550010    6.20898376559473    5.96639488431299
C         0.14838033891422    5.20883386521412    5.45919905104918
H         0.73673706176663    4.65326900786371    6.17548367792988
O        -0.43512259663167    5.36689158873494    1.91474917824250
C        -1.22367222592603    6.04840527951985    0.97730574105166
H        -2.29331493234876    5.92095044877611    1.17905189528348
H        -0.99076333832557    5.60834016618419    0.00680144208463
H        -0.98823014883750    7.11895230485555    0.95154920143377
O        -0.66000835158011    6.37203294442508    7.33296125854285
C        -1.47957753973987    7.36128001926302    7.89395336666422
H        -1.21901107805536    8.36082709680968    7.52654545827256
H        -1.30577809824793    7.31930342862179    8.96892459536085
H        -2.54054846064892    7.17113672183624    7.69377764927912

