57
CSD_code = LAXKEB | q = 0 | S = 0 | Stoichiometry = C20H25BN9ORe | MND = 7
Re        7.09032114233491   11.08116541926525    3.18498617568432
O         7.76006159475808   13.92676971281730    4.11817852101715
N         5.13190784596492   13.21910760246726    1.66437002655825
N         5.21340869423013   11.01455126087442    4.21897598458203
N         4.85706023496878    9.89901311481136    4.86553642937766
N         6.63551424152744    9.05962908893900    2.59799551738292
N         6.05152958587756    8.23220631967044    3.46275525880509
N         7.78865102685694   10.11643149444079    4.97640786953088
N         7.10270721379624    9.10589293714686    5.50884149159772
N         9.15096927319829   10.68707213402585    2.50235683007319
N        11.02522246807734    9.56565291924839    2.21613853308935
C         6.06201683669719   14.01976365574387    1.30501791106772
C         7.27335936274446   13.31953159029808    0.73797679140210
C         6.90094577008128   11.87031292273867    0.98693697193177
C         5.55510642481628   11.89411747827335    1.44873754117626
C         4.45697709072531   10.91632357069473    1.13916485961074
C         5.99004902181557   15.48999946085478    1.47656261393912
C         3.66962234793671   10.08253728440415    5.46406073958193
C         3.24373662973550   11.36370169556361    5.19073609193387
C         4.25568679776662   11.91242974878458    4.40319319252130
C         5.86399145364882    7.02983440199627    2.89849937885412
C         6.35105308264047    7.08111132740978    1.60974208958651
C         6.82690621559271    8.38604637619148    1.47402546409142
C         7.76445955066197    8.61377520807089    6.56595047928107
C         8.92923166559964    9.33638513011186    6.71825903665992
C         8.89516372348525   10.27690717985713    5.68912493115864
C         9.70905362772308    9.49422943473387    2.49870735326749
C        11.31682326509536   10.88578070051404    2.03560986965335
C        10.15107215302490   11.56724039502521    2.21635771632139
C        11.95044337199271    8.47258044805840    2.12821362003857
C         7.49347452536308   12.84744780075588    3.77305385403044
B         5.75744634340750    8.66505524445650    4.90588768405114
H         5.27332996576888    7.78010156409120    5.52700622263294
H         8.18794847986341   13.65481543674116    1.22312916978511
H         7.36834401760497   13.51922937582504   -0.33395906485750
H         7.24437962955503   11.12889758884864    0.27137394198377
H         4.84374843012858    9.91956099046452    0.94799311573491
H         3.93547846483879   11.26366477461184    0.24563642528972
H         3.73134174493026   10.88020506050669    1.94911728974520
H         6.61552212134412   15.77312466413777    2.32311206849582
H         6.35953936269222   16.00428272974698    0.59122967935600
H         4.96778625669575   15.79206959019300    1.68362392550458
H         3.21083446731545    9.30060272458485    6.03513599649167
H         2.33772849781592   11.83425419575629    5.51260834553434
H         4.32635712032612   12.88319279163607    3.95223307895550
H         5.40437355102173    6.22743480252506    3.43918646857606
H         6.36074298312347    6.30038617524630    0.87640927876011
H         7.29339237286036    8.83884908125547    0.61901966828865
H         7.37143801378206    7.79595682892947    7.13546122154854
H         9.68654268123801    9.20879057945705    7.46440544675485
H         9.59736025107974   11.05307012827642    5.45103422502847
H         9.21404293785437    8.56185975474233    2.68726903195439
H        12.30500325899218   11.22329739861461    1.80101207657911
H         9.97188439453629   12.62164641306533    2.17617722681756
H        12.39589870244268    8.42929721272162    1.13226725570620
H        11.42670469851039    7.53848051953509    2.32265799739153
H        12.74940501354009    8.59032656024299    2.86279908008555

