18
CSD_code = LAXLAY | q = 0 | S = 0 | Stoichiometry = C9H5F3Hg | MND = 2
C         2.94933576312404    4.82659588242727    7.80472786057010
C         2.04377265212719    4.21644968047953    8.32241973981210
C         0.95057748958977    3.48423390352737    8.95285681354979
C         6.28671895162041    7.05067296269148    5.76032602051607
C         6.51776333436240    6.87037072225626    4.39370934300575
H         5.89820161453463    6.19364531963363    3.81455205501028
C         7.53983599973427    7.54909327661279    3.74807936238981
H         7.69671276368894    7.39158344753507    2.69103470353290
C         8.35259157545521    8.42097492360010    4.44965642089918
H         9.14788271209782    8.94898699889956    3.94478909390628
C         8.13838567607499    8.61148145976500    5.80272748994705
H         8.76635786354711    9.28981130602321    6.36157046321771
C         7.11768830030780    7.93526570337831    6.45336269461083
H         6.97641135486469    8.10724402601599    7.51514014752142
F        -0.18628667677276    4.20239544844193    8.99593460896004
F         1.23188934394907    3.13842601676761   10.22203712024329
F         0.65787662740709    2.34418335946989    8.30199373171680
Hg        4.62628465428779    5.94718556247571    6.80178233059052

