61
CSD_code = LAXLUU | q = 0 | S = 0 | Stoichiometry = C28H25BrN3NiOPS | MND = 4
Ni        2.80612230092648    4.20845136908765    2.80352716513517
Br        9.13943852999290    3.45917680844091    6.47546042426949
S         0.49743449924642    7.85497826147519    3.44829496967716
P         1.89789905827992    2.61907517507459    1.58682737535853
O         4.24122813783342    3.12050374935962    3.04506962658135
N         3.48772660592421    5.52239107573178    3.96975055953829
N         2.68061314148243    6.60309903564899    4.07100866486866
N         1.38732609232661    5.40418291363173    2.60969980858198
C         5.26972449719321    3.25661939906993    3.82021607872459
C         6.19767531623742    2.19104144114794    3.85551170718802
H         5.98104505619806    1.32501563800076    3.24789270947863
C         7.32839361226725    2.24125079130744    4.62649051603159
H         8.02585874455429    1.41773681986667    4.64082185860347
C         7.56374242376917    3.37691334591800    5.39611333803354
C         6.69106319885958    4.43523812083596    5.40013297180836
H         6.91259269134701    5.29126220432743    6.01578699656232
C         5.52326241362563    4.41012706360443    4.62095625943585
C         4.61023268561133    5.52412076018476    4.64369109276739
C         4.94783527465394    6.72777856456921    5.47708954309532
H         5.90558748605803    7.14365063582216    5.17081210912271
H         5.00211950328273    6.45629882202770    6.52976875205263
H         4.17145330364280    7.47549465347844    5.34290374610945
C         1.60023741853438    6.48226100979857    3.34361867497020
C        -0.84208970691889    7.36407645284588    2.31415651093932
H        -1.55320862613150    8.18339637715274    2.33661170694372
H        -0.45641496289364    7.24331968284805    1.30517673569226
H        -1.32263795672620    6.45435284009821    2.66553655066844
C         0.21224036394247    2.90588122391102    0.95160975205289
C         0.07871089374437    3.81913168778934   -0.09349353398504
H         0.97038494304176    4.26344550282621   -0.51846297986796
C        -1.17219361584440    4.15001738371400   -0.57704970620234
H        -1.26968350490451    4.85421087649458   -1.39046144277039
C        -2.30372182436173    3.57989778357638   -0.01231383333148
H        -3.28252906364126    3.83997203491878   -0.38666298284753
C        -2.17737795195696    2.68110252177011    1.03333843558969
H        -3.05882170843468    2.24008215883651    1.47510117625559
C        -0.92457850991185    2.34580208829159    1.51998983692067
H        -0.82884102823548    1.64902690630806    2.34066269343597
C         2.72140336035096    1.86894009361455    0.14628060665378
C         2.00652562359786    1.22653140938806   -0.86071379092411
H         0.92661814311813    1.18798774747385   -0.82043958631200
C         2.67987991157488    0.64295819380210   -1.91887798916947
H         2.12237365526191    0.14391041262511   -2.69829409628915
C         4.06310244977013    0.69620139568414   -1.98087860235791
H         4.58294329639895    0.23927364072716   -2.80991062054075
C         4.77686884575914    1.33803947387270   -0.98203616604411
H         5.85474913274945    1.38402304356654   -1.03201295612235
C         4.10936696965258    1.92494005525078    0.07772464559063
H         4.65211409882475    2.43311571152064    0.86162909146889
C         1.67938669391103    1.20491555694437    2.71449555067926
C         1.57870801927938   -0.11354277563464    2.28784610183024
H         1.64570472851458   -0.34967896152086    1.23546747389923
C         1.40112396685252   -1.12325247525316    3.21768623107084
H         1.32473876149834   -2.14881521949034    2.88714317319586
C         1.32566505206238   -0.82474983223658    4.56868520039984
H         1.19164586952495   -1.61831447995656    5.28879895632015
C         1.43082119946290    0.48896961411724    4.99834694804809
H         1.37990816895565    0.72036289578099    6.05195029443398
C         1.60781367755933    1.49999863219068    4.07293378745122
H         1.70745346444225    2.53865705787875    4.38964226602984
H         0.52943517820626    5.37704562988315    2.06864961321905

