93
CSD_code = LAXNAC | q = 0 | S = 0 | Stoichiometry = C52H36N4Ni | MND = 4
Ni        4.24065416516739    3.72820454559782    3.44976493247438
N         3.66444983107507    5.57971782335505    3.01583253430173
N         3.26925661719402    3.02733630587513    1.88653394408333
N         4.78586273362749    1.91580472609424    3.98047876068970
N         6.71907150447412    4.62492172421007    6.69816834456775
C         3.94379253464624    6.76067422814236    3.67512576147730
C         3.15700610623537    7.83405499131349    3.13580032899061
H         3.15900207721343    8.83988698923215    3.50834536872744
C         2.43110059908618    7.31211864716371    2.12693934338626
H         1.71412754059766    7.80264649744282    1.49797760273983
C         2.77996491407934    5.91837745540684    2.04146387422069
C         2.27818120532613    5.09375625497523    1.03042230489193
C         2.57407069353240    3.74277069786564    0.95799953785043
C         2.16797248502112    2.89553336421079   -0.13633291984612
H         1.64056842066022    3.23193213565510   -1.00771836307192
C         2.60196953270978    1.65449703191191    0.15670836268100
H         2.50584071511298    0.75757879906401   -0.42367438022898
C         3.26435859434173    1.74113891413247    1.43503330762635
C         3.78411510867501    0.64817003298284    2.10724265468152
C         4.44654760456487    0.76671779250123    3.33261922705797
C         4.88578906324546   -0.38332731346348    4.07119217371609
H         4.70722942651723   -1.40082348733991    3.78369475816771
C         5.52987068492148    0.07861106437474    5.16382288994147
H         5.99686415174409   -0.48439063124287    5.94855707694279
C         5.48340461086307    1.51001455335259    5.09550156327743
C         6.13172050434415    2.32313763799015    6.01035092658292
C         6.04850894525176    3.71199136886387    5.87438815518153
C         5.25773286168553    4.40434288068965    4.92497172308317
C         5.47289503569867    5.77693055618279    5.25617675010084
C         6.39289028311513    5.84834998866349    6.30668485023464
H         6.81433901287465    6.72639126617020    6.75642785300777
C         4.83909504067391    6.91303721563323    4.70881269653750
C         1.42230837628659    5.68666905268639   -0.01694539537469
C         1.92220069855002    6.66635833141822   -0.86981844855564
H         2.94671065779215    6.99168648263490   -0.75843867251200
C         1.12222471771812    7.20833524031577   -1.85894303901683
H         1.52244412219710    7.96445942390182   -2.51899069729890
C        -0.18768534311612    6.78312789417122   -2.00606861769434
H        -0.81199609856067    7.20816533537810   -2.77829850947434
C        -0.69359293973667    5.81029906061971   -1.16020372319116
H        -1.71543410389064    5.47667739019318   -1.26991645006087
C         0.10624546793274    5.26258989389925   -0.17387397600336
H        -0.28806403317568    4.50642648289143    0.48986953807258
C         3.63005753704236   -0.69471628652518    1.51209524102612
C         2.36601583488018   -1.24195088388434    1.31479343147885
H         1.49350310501582   -0.67986807432764    1.61568692559722
C         2.22616009551975   -2.49776834199446    0.75246983754453
H         1.23987669218985   -2.91476785977003    0.60800084033819
C         3.34574622626307   -3.22024982225621    0.37535068377267
H         3.23547109027996   -4.20002846200546   -0.06585692990698
C         4.60753645773673   -2.68201730563270    0.56647510501585
H         5.48391034364724   -3.24121615461635    0.27190468368578
C         4.75019369038149   -1.42895670283783    1.13347443221724
H         5.73351093406122   -1.00507440793629    1.27885667504616
C         6.89451109202492    1.63619412473185    7.07785974904080
C         6.26802927858928    1.26928215681368    8.26511318573882
H         5.22455488623981    1.51141721396556    8.40814886150661
C         6.97357602238881    0.59776610160015    9.24764320918451
H         6.47978345310215    0.31651832081206   10.16628106739494
C         8.30740442528083    0.27990153727729    9.05184885622143
H         8.85610125324913   -0.24670406198708    9.81836994707504
C         8.93211640422535    0.62865648078826    7.86625748540723
H         9.96824214180749    0.36938679717656    7.70483207614452
C         8.22978945537293    1.30126059675159    6.88207328773887
H         8.70892743878102    1.56350786393675    5.94968949990089
C         5.12031325155426    8.23571241538614    5.28461373899862
C         4.93834360515215    8.46688158349440    6.64713066308202
H         4.54207441399669    7.67734998015923    7.26913260691029
C         5.23664649417237    9.69910913778635    7.19752832091528
H         5.08980944583102    9.86340454951714    8.25530394479961
C         5.72119825636736   10.72021266997585    6.39696350870914
H         5.95587469106277   11.68271122186578    6.82732832844700
C         5.89926884238490   10.50309033644014    5.04060048677141
H         6.27593726168011   11.29686971187853    4.41187090496775
C         5.60090745823884    9.27169636056335    4.48703980376389
H         5.75573177191701    9.09699147968152    3.43235394193761
C         7.61968763213412    4.35476896106184    7.80298575790357
H         8.56160368112186    3.95083201949582    7.41508618445065
H         7.16659357666189    3.59883202854620    8.44987996597328
C         7.87301324966195    5.60807780224238    8.59746308623212
C         9.04922234790487    6.33009115703919    8.44967258892309
H         9.82001338018191    5.96729117325992    7.78492602936616
C         9.23734511028113    7.51279651813941    9.14060854225858
H        10.15704710222515    8.06521542617086    9.01360316396731
C         8.25515845431786    8.00727817056068    9.99029352084157
C         7.08419763628888    7.27553665832615   10.14410750828901
H         6.31111762582770    7.63873676568821   10.80566128989714
C         6.89536657086917    6.09007436587567    9.45970698445464
H         5.97597870997110    5.53605044539827    9.58460891165408
C         8.45152928210427    9.31026307749973   10.70128107415949
H         9.47263433422670    9.40224510836448   11.06502687027140
H         7.76767436713009    9.40423715616980   11.54093781229763
H         8.26587946238287   10.13727224421340   10.01533235561432

