39
CSD_code = LAXPOS | q = 0 | S = 0 | Stoichiometry = C17H14Br2N4OZn | MND = 4
Zn       15.47771857721407    5.07254288590024    8.90641336110938
N        13.78795535190371    4.00912685506735    7.76435967537787
C        12.50903079129513    3.72485232214769    7.60553361709027
H        11.85701751103884    3.99747887182856    8.42394258654082
C        12.01677229243561    3.11552352927546    6.46307281073724
H        10.96530633434542    2.90004258028649    6.36679926322152
C        12.91133853480619    2.79356410808861    5.45030306385062
H        12.56486737999948    2.31695575158873    4.54528920899827
C        14.25057654935873    3.09035129495663    5.60604404462902
H        14.96383078582290    2.85196208704435    4.83319346284761
C        14.65557130369767    3.71210004135232    6.79059360687920
N        15.91585465637230    4.09696457571917    7.15416703265424
C        16.98808938375349    4.02561956461786    6.43066537968967
H        16.94840760974667    3.64171171971391    5.40715360622775
C        18.25057874106287    4.44111359201136    6.90554303558376
C        18.44449844636897    4.94686975431692    8.23987421249740
O        17.52183629252215    5.03201949808575    9.11526210092707
C        19.76798031036556    5.34694094752847    8.58895891819139
H        19.91563909160767    5.73961891545135    9.58379742350468
C        20.81073105573143    5.25951470850184    7.71524784646322
H        21.80192784413903    5.57492237263331    8.00523990568609
C        20.59477340318790    4.75510926461318    6.42452245525369
Br       22.06841080335080    4.62491551783188    5.22139245872375
C        19.35142518815709    4.35839144515148    6.02650477066179
H        19.19299560843511    3.97720861409024    5.02767231591248
N        14.87037917801685    4.22637331388767   10.71512904680495
C        15.60555106222633    3.38890890670770   11.46145778497887
N        16.84871695774610    3.09294085906615   11.03654714586537
H        17.47229456929590    2.62197033116627   11.66850580611288
H        17.25957946840019    3.70956759746654   10.34177866674474
C        15.07405225883745    2.79964992021014   12.62659790014807
H        15.69197753613569    2.12724866525197   13.20147399875247
C        13.79055423581999    3.09605256171081   13.00748778705332
H        13.36834529060694    2.65620063164920   13.89847842120100
C        13.04326924238872    3.98283303018148   12.23177306025844
H        12.03734674623427    4.25276992478285   12.50582058169750
C        13.62523659285465    4.51455465969461   11.10626249779687
H        13.08945133299110    5.21767613404383   10.48430802494840
Br       14.73431168171141    7.22463264637780    8.84843311437871

