53
CSD_code = LAXSOV | q = 1 | S = 0 | Stoichiometry = C22H18CoN8S4(1+) | MND = 6
Co        5.39498451070192    9.67780591875838    2.33065796820740
S         8.54001649762812    8.57580713756157   -0.40599906646725
S         3.19758433740795   10.02502246587290    2.80301905970162
S         6.27576584609945   13.83572942922110    3.05805844332356
N         7.15437174047228    9.28208822405873    1.62676105588711
N         4.80909144561658    9.31702078605628    0.61107107378301
N         3.55798007079929    9.37368507064867    0.23836469416797
N         1.37593578080934    9.76815174821467    0.94970698028504
H         0.82113074481362   10.00939509189871    1.76425210423665
N         5.62088060860139   11.57890059044405    2.04409394618531
N         5.97993316313118   10.03685953424947    4.05125534315836
S         5.21574448860627    7.52621727648623    3.04435266587049
N         6.11130658857989    9.12990573684455    4.98286147647344
N         5.84426596565446    6.87310535559217    5.49292871851990
H         5.54807982125876    5.98470475271160    5.10241042946320
C         9.32633142052697    8.84787299487233    1.10070110639250
H        10.38515063332832    8.72281587043629    1.19668686703982
C         8.43444371022558    9.21261404877920    2.05690704379686
H         8.67477982241711    9.43196666305960    3.08213310886857
C         7.03989695933744    8.97098352141877    0.33933210156384
C         5.75046752830025    8.98986056264277   -0.23364883208090
H         5.54551424571663    8.74206858587357   -1.26441458740444
C         2.68667655321566    9.68701357738149    1.17797689013961
C         0.63337468538101    9.55578075981662   -0.21639373392800
C         1.20659616135877    9.19903597874992   -1.43300244079353
H         2.27303182926628    9.07063284996937   -1.50127004943060
C         0.39771282112002    9.00834345483576   -2.53859775384514
H         0.84572999211684    8.72999817305291   -3.47987533541713
C        -0.97497301240802    9.16957073455827   -2.44666756967956
H        -1.59772824819656    9.01872770325965   -3.31418332721565
C        -1.54574948453585    9.52465760688284   -1.23455488130882
H        -2.61386052488689    9.65161955262325   -1.15432676112428
C        -0.74900162039415    9.71777386075323   -0.12328921275383
H        -1.19450049066820    9.99366133834849    0.82170251599676
C         5.75512073710623   13.76375425165639    1.41907195989182
H         5.69999884830651   14.65062383969151    0.82211448245238
C         5.45101419379793   12.49042703988840    1.05998329530957
H         5.09647754560241   12.18367109003730    0.09189475588464
C         6.05395590657156   12.13280863790066    3.17234151880746
C         6.25916950260759   11.29123194286168    4.28639714414238
H         6.59666371657423   11.64036037182293    5.25081452801173
C         5.77504943737111    7.89972317553900    4.64553945743143
C         6.24136096237606    6.81466379406227    6.83280257431290
C         6.21091376059439    5.56229761704482    7.44652654678931
H         5.88840874766551    4.69707255388254    6.88510707158760
C         6.59043196679381    5.42852665456747    8.76752893840742
H         6.56377083220851    4.45662136166996    9.23494066626808
C         7.00259412892496    6.53816599009660    9.48871495197941
H         7.29847111027664    6.43304171708284   10.52049522452205
C         7.03138801470240    7.78174493730395    8.87929541604407
H         7.34967524204398    8.64829642687367    9.43799512599090
C         6.65450984373427    7.92887630472885    7.55665795300904
H         6.67266091134582    8.89479533734711    7.08206834755073

