90
CSD_code = LAXWIQ | q = 0 | S = 0 | Stoichiometry = C42H42O2P2PdS | MND = 3
Pd       -2.55049268779379   -2.76092996357106    4.70467371948734
P        -1.15292960875258   -3.00092423697480    2.90899558873223
P        -4.20713779404442   -2.28159186010454    6.22975872156761
S        -1.43588654805870   -0.80336081948272    5.33128324503439
O        -2.31049668345161    0.12914917369065    4.63713007159008
O        -0.13208272299223   -0.99195477375553    4.69745893341722
C         0.58011078711873   -3.56097608925162    3.21739277672504
H         1.03146159732407   -3.92040200154656    2.28964871958247
H         1.13423685331933   -2.70026710070686    3.59377243651545
C         0.50000360279019   -4.62354009354035    4.26786323306201
C         0.75419730940345   -5.95748178883442    3.97899138634780
H         1.04042388135078   -6.24161732767269    2.97526754425694
C         0.66148559600117   -6.92343727723374    4.96734942525653
H         0.86381779681274   -7.95758231377709    4.72782320977637
C         0.31746841813269   -6.56478844983239    6.25899508258461
H         0.25506399566618   -7.31623052540784    7.03247327974298
C         0.05819479028445   -5.23622842341415    6.55737051864160
H        -0.19154418430362   -4.95463086548028    7.57104427024002
C         0.12605977203243   -4.27076420518271    5.56587167799171
H        -0.04021679676785   -3.22150615854664    5.80830744297705
C        -1.74628658164508   -4.30000499402460    1.71916149544227
H        -1.31066052438761   -4.14838501160319    0.72976573659213
H        -1.42965787989322   -5.26907889598027    2.11338813765141
C        -3.23697778995247   -4.19579198515655    1.72471961738637
C        -3.94315309451936   -3.53211111174291    0.73074336113391
H        -3.41951079177571   -3.14078040833795   -0.13043800304574
C        -5.31664255277364   -3.37837823396388    0.82479345352226
H        -5.85174062639876   -2.85190055743816    0.04828087920657
C        -6.00346653446496   -3.89702820769613    1.90817203412164
H        -7.07480919455515   -3.77884636860519    1.97584856521063
C        -5.31191994281340   -4.57538161991821    2.89939264926105
H        -5.84006658478645   -5.02173327746420    3.73058519530229
C        -3.93503996056444   -4.70205038864759    2.82264499404982
H        -3.39781171701969   -5.26244245530791    3.58119800647533
C        -1.03742112921428   -1.52077403364821    1.80068137115691
H        -2.02393942214070   -1.42620174997543    1.33508902698174
H        -0.87658056301249   -0.66057021156118    2.45416273646207
C         0.04638632766157   -1.62282472971064    0.78179293540422
C        -0.20941043187476   -2.07850826701924   -0.50685948709206
H        -1.22139529534020   -2.32279121453740   -0.79933016492421
C         0.81295703630726   -2.19647555344155   -1.43236467931090
H         0.59570320290314   -2.55150649122664   -2.42966312155336
C         2.10817509255663   -1.85615457917305   -1.08408087360360
H         2.90635989676164   -1.94976161613497   -1.80559383720569
C         2.37149680147582   -1.38030156172876    0.19016540642995
H         3.37747153964790   -1.09612237068903    0.46278219314382
C         1.34949271002917   -1.26313360013724    1.11331323255656
H         1.55090775580569   -0.87592880561495    2.10115298041965
C        -4.04437680487130   -0.70591487011182    7.19824704795676
H        -3.15441452466177   -0.82251967406126    7.82621428039165
H        -3.84323769179924    0.07082439187621    6.45395365381784
C        -5.23980715990719   -0.35630095992008    8.02132607282575
C        -6.19744634686355    0.52149314861444    7.52450826598818
H        -6.04865340995492    0.96617339238754    6.55147629456698
C        -7.32241203096059    0.83324082137737    8.26637544355109
H        -8.05615368040389    1.51794389306470    7.86649479263282
C        -7.50634756720491    0.27493260742621    9.52024231923205
H        -8.38491066805575    0.51653015248984   10.09977101702721
C        -6.54960216803430   -0.58453324512603   10.03277858123930
H        -6.67813609288460   -1.01213663177307   11.01657699390976
C        -5.42446686531281   -0.89544928368553    9.29012177240955
H        -4.67360776719100   -1.55158706346771    9.70691902653333
C        -4.60459579389359   -3.54628107119572    7.52320750625724
H        -3.82675220303586   -3.48508682788922    8.29025684480277
H        -5.57633344135478   -3.34153795907379    7.97870467464274
C        -4.56333299643842   -4.88735889455947    6.86004248154135
C        -3.34968091147093   -5.35875435787456    6.36534333934897
H        -2.44745633274454   -4.76251104543269    6.49749623506552
C        -3.27785130671209   -6.59131502191998    5.73956119247107
H        -2.32547656623301   -6.95135561946113    5.37672564644753
C        -4.42267407939828   -7.35565809823409    5.58015116867750
H        -4.37006299083440   -8.31446627590549    5.08612876758274
C        -5.63519557447317   -6.88547928694374    6.05439393522455
H        -6.53101825058426   -7.47630738034763    5.92919923447638
C        -5.70538749181543   -5.65759134688722    6.69147027938656
H        -6.65410894625527   -5.29689769300680    7.06513219517596
C        -5.86512436680340   -2.11347420960655    5.43526455384507
H        -6.09116400236215   -3.10142905996680    5.01686702507994
H        -6.61073988112679   -1.87898494693206    6.20261402748709
C        -5.89165619935391   -1.08651233539890    4.33864263416619
C        -4.90923723018265   -1.05523974961356    3.35485981550810
H        -4.09517329200923   -1.79059057219012    3.36468406336307
C        -4.95350870965837   -0.10589420844123    2.35042300746201
H        -4.17838422159423   -0.08330675699116    1.59925820582403
C        -5.98232112534307    0.81933216977902    2.30742075568799
H        -6.01169454123153    1.56425138745696    1.52589270219060
C        -6.97486144827640    0.78363381544986    3.27073425408751
H        -7.78658952321264    1.49641804836839    3.24114048630213
C        -6.92897139220057   -0.16362770728933    4.27830795896320
H        -7.71087152339174   -0.18933827387803    5.02539632213572

