42
CSD_code = LAXXEO | q = 1 | S = 0 | Stoichiometry = C18H20AuN2O(1+) | MND = 4
Au        0.85445032948325   -0.33262189202324    3.62003844852335
O         1.05387517030810   -0.37158135038767    1.73057740315921
N         0.49509027977054   -0.36976899942301    5.61269055533832
N         2.54614261983938    0.82172383798963    4.39932233639277
C        -0.57150529644585   -0.95583645577557    6.15307670835939
C        -0.81300233207310   -0.96475036267121    7.51288252304104
C         0.09578815755561   -0.32987562062276    8.34716324580283
C         1.20231966175598    0.28163658917451    7.78556939320228
C         1.38979154811655    0.25057929758676    6.40412143988572
C         2.53578731267614    0.88400074346426    5.74168154426500
C         3.55802047439739    1.51983126560043    6.43503366751360
C         4.59553726188944    2.09928838309900    5.71612468378242
C         4.57978308372154    2.03202393776766    4.33842731111273
C         3.52760632755227    1.37706398576266    3.69069311009942
C         3.47294874948826    1.28857356135795    2.21323488840101
C        -0.62384486181005   -1.40337255346386    2.75245503846150
C        -0.05888778017517   -1.15408223207052    1.35787946231383
C         0.28413424503138   -2.56012767435793    0.85244274571968
C        -1.05238395242006   -3.25991394639513    0.58219685694987
C        -1.61673786909165   -3.49672721964993    1.99899358356935
C        -0.52637575577518   -2.91086267409015    2.91883198727223
C         0.74040328126928   -3.25663395653741    2.13443790822482
H        -1.25368049648221   -1.43279366798679    5.46605927860897
H        -1.69029538919292   -1.45360669577677    7.90311446362569
H        -0.05523693485764   -0.30920355883916    9.41514782951926
H         1.91233659611497    0.78326211618519    8.42054694719441
H         3.56279957683394    1.56774373701342    7.51003712334103
H         5.40078973409872    2.59639832749411    6.23429702582576
H         5.36870039992614    2.47666119305174    3.75371919063960
H         4.33520156020619    1.76834989279944    1.76118292183405
H         3.42398092293088    0.24977720431774    1.89201204730746
H         2.56229837246914    1.75428781474192    1.84022195081698
H        -1.59488774433428   -0.95875097631982    2.95360402452210
H        -0.68878399569541   -0.59400431216547    0.66047769527337
H         0.98311050820662   -2.56196032292112    0.02108137179266
H        -0.88992298011156   -4.20165430759675    0.06117410112720
H        -1.71256465539739   -2.64603172147342   -0.02805201554773
H        -1.73930549830305   -4.55881903341305    2.20694916153020
H        -2.58041917880865   -3.01192393052358    2.14838978673204
H        -0.57654756600139   -3.27506022498030    3.94496306625330
H         1.64802430067233   -2.82596903707678    2.55730541017472
H         0.87366181266159   -4.32766916086500    2.00479377803836

