108
CSD_code = LAYKUT | q = 0 | S = 0 | Stoichiometry = C56H43N5OP2Ru | MND = 6
Ru        7.29971861562798    5.03410438522959    3.64993257512536
H         7.02423314328587    6.03024911874199    2.52640706165330
P         5.51638956176228    3.73196002122178    2.89393246876931
P         8.85059912374344    6.45853773514540    4.57232034871318
O         9.25513153682313    4.14164227353498    1.59316488864965
N         5.87528240199900    5.96151730145625    4.82530359921760
N         4.71692582873276    5.87435086793829    6.77928798302200
N         7.40717059580230    3.81730906358106    5.46863413408314
N         9.15092691709376    2.27482098100398    3.64861378523049
N        10.44924872870433    1.85026479483960    5.40438854103166
H        10.78651611568023    1.88402082411461    6.35142614927171
C         8.54245928584911    4.32168556885072    2.48320172897710
C         5.63777739310032    5.31425562917943    5.99203382039175
C         4.33476283571149    6.98055769623099    6.09460569271689
C         3.42503262389038    7.98331058928109    6.43015099633863
H         2.86642483301662    7.92600712243953    7.35201553310152
C         3.28490089653273    9.03696563746317    5.56112644436289
H         2.59189380421826    9.83345220257518    5.79466347421601
C         4.03303159801996    9.12095316155629    4.37713591124555
H         3.90182111322102    9.98529185961720    3.74089856009423
C         4.92830743658216    8.14432342204940    4.01586418308550
H         5.52580003061743    8.22577070930806    3.11982869676276
C         5.07152695174741    7.05123123014025    4.86879443891323
C         6.44964969901152    4.18805651329818    6.34619105233010
C         6.27411305353418    3.58248135911776    7.59516799388273
H         5.48142568746585    3.95802561099154    8.22058929980953
C         7.10823979304992    2.55607568499423    7.96800546774761
H         6.99893584048777    2.05934881761046    8.92000321948567
C         8.10217292578831    2.17397377087026    7.07928169064777
H         8.76393329419179    1.35558605370331    7.31768972264410
C         8.21794286227638    2.81754572395178    5.84899543171789
C         9.25626204678034    2.35203602756696    4.94608939892762
C        11.16496786539711    1.45984040021253    4.30329256920489
C        12.42402703366078    0.90381325860408    4.14704113455819
H        13.06085018944044    0.70271774074863    4.99572921224679
C        12.82650129005384    0.62449322826395    2.85648954616376
H        13.80187051495351    0.19221533625129    2.68909591080593
C        12.00416861074801    0.89069722992086    1.75855331027846
H        12.36933853255726    0.65892560994107    0.76915050368439
C        10.74843152709117    1.43994941804854    1.90576807787788
H        10.11961281682824    1.66021439218322    1.05920221708370
C        10.32354254592128    1.72879147005463    3.19845396627455
C         5.72326730305426    2.64475924712689    1.43538919033733
C         6.89388410736433    1.89559029578086    1.33695838775434
H         7.65533078611470    1.99862153799745    2.09815961430194
C         7.08861526128878    1.04208476256716    0.26645705563660
H         7.99437572693323    0.45558814766549    0.20478090395093
C         6.12961565935548    0.94029283891504   -0.72777168276015
H         6.28456225909308    0.27797030857378   -1.56705485200989
C         4.97543450314754    1.69996059836097   -0.64667527592112
H         4.22887053999696    1.63470006437035   -1.42513101535019
C         4.76862627794204    2.54705044258028    0.42817474294272
H         3.86407120880380    3.13543152610817    0.47222201194492
C         3.94546199543592    4.56676706919671    2.48116711250363
C         3.99783193101689    5.86152976216098    1.98107033511715
H         4.96430019956825    6.32917975230631    1.85954878343690
C         2.83571139438377    6.53394546758640    1.64756001383534
H         2.88776313848498    7.54655163036341    1.27606841595965
C         1.60941869070922    5.90991479687743    1.79579452873020
H         0.69885539847735    6.43461633900817    1.54626108607833
C         1.55106188602205    4.60339387254010    2.25558065575622
H         0.59652811645535    4.10588696274838    2.35157804925831
C         2.71006071727199    3.92972633640388    2.59293799500731
H         2.65591220401361    2.90624938474510    2.93891141192548
C         4.97281618978532    2.54791908038345    4.17965744328010
C         4.04195282358629    2.94599091655179    5.13859775597858
H         3.56079045340731    3.91143125076163    5.06220826321595
C         3.72522255534160    2.11118175896903    6.19447997587867
H         2.99969056078063    2.43250964772612    6.92691636291356
C         4.34393288836973    0.87859857011521    6.31828712491806
H         4.09908396492101    0.22923906725552    7.14616362709431
C         5.27955217898429    0.48220698975183    5.37688194410904
H         5.76757674834890   -0.47779164026612    5.46971948440517
C         5.59672209527908    1.31119267946139    4.31621303929666
H         6.33145808837202    0.99692670310800    3.58949936975617
C         8.12807428098590    7.58084997940195    5.81106365981257
C         7.72928050441898    7.10082708978308    7.05746738646718
H         7.95869293503600    6.08294410255816    7.34737506169830
C         7.00987499864509    7.90759977841988    7.91903073072632
H         6.69493962535442    7.51988859293274    8.87652189824183
C         6.66704333376305    9.19522242245599    7.54198105873313
H         6.08994718465645    9.81708470901703    8.20966020306804
C         7.04587229887835    9.67467435907911    6.29973007640012
H         6.76313929966745   10.67150365040825    5.99529016229627
C         7.76345399700410    8.87071770622487    5.43375132660498
H         8.03448272282945    9.23542020614097    4.45256004394070
C         9.80196515340045    7.61811605262856    3.52959818953684
C         9.66277987801616    7.61820511597987    2.14884107939313
H         8.95032198117942    6.94359133671988    1.69113156423790
C        10.42588879571576    8.47816324820225    1.37626683416978
H        10.31624991400346    8.47433608874654    0.30179880772829
C        11.32749448487988    9.33871586580503    1.97825905413970
H        11.92175126899043   10.00944394517543    1.37505505716820
C        11.47015267186915    9.34053475469483    3.35794750775341
H        12.17364484460702   10.01230181294027    3.82825549340426
C        10.71515338287143    8.48157462273185    4.13213961550429
H        10.82410834035897    8.47758171697045    5.20899153730920
C        10.31501411508759    5.69883302543096    5.37922154087787
C        11.13068303032374    4.96562655303307    4.51754924510710
H        10.85218351184702    4.88007196169937    3.47541614842561
C        12.28874562189855    4.37009857124697    4.97662110474495
H        12.91857182591352    3.81915537264704    4.29330913402713
C        12.63837982792854    4.48164174870674    6.31405419454087
H        13.53961232442857    4.01129986355025    6.68036077846380
C        11.83967791989699    5.21513612795319    7.17380667291876
H        12.11890067695777    5.32162067840105    8.21261872565928
C        10.68927243766373    5.83335633725964    6.70997399634473
H        10.10222145881856    6.43377659403348    7.38881951033864

