63
CSD_code = LAYLOM | q = 0 | S = 0 | Stoichiometry = C26H28N6NiS2 | MND = 6
Ni        7.04357689966063    6.97270559212095    5.12626401629183
N         7.65976991369433    7.59877405144225    3.53016523456424
C         8.55760419776706    7.98976613325839    2.87775284727687
S         9.69862995940786    8.55139373857445    1.92953839166571
N         8.86609825023743    7.15483888532040    5.90997337126733
C         9.59306777808582    8.25151687306000    5.72688197078558
C        10.93785377378891    8.35707368360150    6.06799866428257
C        11.54286526709764    7.25228584083057    6.65043204281515
C        10.78048691524150    6.11882261284441    6.87573782160134
C         9.45129066445715    6.10916421968246    6.49205579468896
C        11.67899114434897    9.62164340617202    5.77790815355971
N         6.53016611533680    9.27502880633056    5.85931412265646
C         5.99526469384155    9.47728405980122    7.05556907054558
C         5.67560791567943   10.73328194502431    7.56309849571276
C         5.94022428689320   11.83487377328120    6.75868540791302
C         6.49985664660267   11.63498909624646    5.50843056067842
C         6.77585739123562   10.34017710240123    5.10190660820633
C         5.08830499834809   10.88171701514081    8.92989772610976
H         9.10193647173798    9.10185656454592    5.27670455043332
H        12.58763138235692    7.27955418894723    6.92468816036425
H        11.21160488267287    5.24500710820478    7.33904317773560
H         8.83958937524517    5.23608028541390    6.66407446206142
H        11.69758994159685    9.79623348049638    4.70291376976937
H        11.18079464996925   10.47082317742090    6.24266888806609
H        12.70167740526246    9.56845815015587    6.14151069442265
H         5.80657422320684    8.59196805017562    7.64733293754760
H         5.70932829743179   12.83226464990462    7.10652303802041
H         6.71726374866328   12.46793801633575    4.85750088446721
H         7.21064526834267   10.15091560134815    4.12839950609744
H         4.59206609266351    9.96458892716381    9.23654987628646
H         5.87717829866835   11.09712506290849    9.65128460127889
H         4.37450266666848   11.70227588768077    8.95830628232499
N         6.42761178590948    6.34662553731113    6.72241567118718
N         5.22099288721403    6.79067737373193    4.34265166100137
N         7.55733614618804    4.67062140158320    4.39306404960713
C         5.53017691911429    5.95658615135566    7.37596391498494
C         4.49389965007476    5.69412323978964    4.52596440815271
C         4.63590171020403    7.83630811945160    3.76038342342772
C         8.09285196606365    4.46841274926211    3.19706967110230
C         7.31052140149741    3.60538822038360    5.14997709136077
S         4.38956918733417    5.39304845749397    8.32355020152713
C         3.14910458454777    5.58863806466357    4.18485929302583
H         4.98491573122374    4.84382431034375    4.97633955533368
C         3.30670205053062    7.82672219621663    3.37671297639949
H         5.24767544305961    8.70931306019431    3.58824034914043
C         8.41194628702600    3.21237699482987    2.68929903805909
H         8.28248178280199    5.35379442687836    2.60570465675339
C         7.58584212056622    2.31052069537452    4.74315735123469
H         6.87547985477845    3.79461475389773    6.12337799977632
C         2.54420479082795    6.69337600875708    3.60221895172767
C         2.40788548534375    4.32414880972084    4.47509789138843
H         2.87567437526546    8.70050301952897    2.91325678762036
C         8.14603893588034    2.11067950279647    3.49315518881268
C         9.00002035749236    3.06397886702014    1.32282643968794
H         7.36750550242764    1.47750940291565    5.39369518050743
H         1.49945599386227    6.66614046259020    3.32789705787223
H         2.39012784858644    4.14913950383509    5.55003326712982
H         2.90548536631420    3.47502461056069    4.00958509637863
H         1.38492250212805    4.37772561841946    4.11233419118230
H         8.37641513630384    1.11325105239313    3.14508229431423
H         9.49657283492148    3.98105758136843    1.01653908750426
H         8.21155244290395    2.84871946998636    0.60095300164240
H         9.71372940341908    2.24332435149899    1.29478312268533

