50
CSD_code = LAYLAB | q = 0 | S = 0 | Stoichiometry = C22H18N2O7Zn | MND = 5
Zn       -2.97448297260748    1.87774921903923    6.29057927981981
O         0.22654288956170    2.28210944872314    4.06496758462312
O        -1.89217624761703    2.17875091084037    4.73510226560221
O         2.75277083764265    2.11510231615320    8.52744083271559
N        -1.14240566703786    1.59278313656198    7.21051833337995
O        -3.08181116852463   -0.38375696546535    5.94668775811760
C        -0.20073699307670    1.97116262810290    6.37386486648488
C        -0.63178970089298    2.17653355042112    4.91956673667993
C         1.13529245854234    2.15661494747512    6.73096519283177
H         1.81407789774328    2.45664905364253    5.94961795667251
C         1.51176689589447    1.95969437348329    8.04348779694328
C         3.77344300397217    2.53281213347592    7.64456471942881
H         3.92348900620042    1.80776138085017    6.84020420518193
H         4.67592792906039    2.59872909240968    8.24951263428539
H         3.54832067077060    3.51202059024160    7.21417307320599
C         0.51009055388085    1.54874896755548    8.97596497530376
C         0.79611805950444    1.31511025592437   10.33391392628400
H         1.80957983831935    1.45701129791327   10.67505897698090
C        -0.19460712915949    0.92233534291766   11.19263055544546
H         0.02864923902340    0.75049858240854   12.23481982526866
C        -1.50531058472248    0.74476129942915   10.72774934621397
H        -2.27671494690122    0.44030187748061   11.41864324425608
C        -1.81291442618149    0.95927655747973    9.41158881165575
H        -2.81949449090346    0.84806585439853    9.04036385530147
H        -3.07289146125102   -0.43884133025913    4.98475150377967
C        -0.81845290509617    1.37520706103491    8.50839254823443
H        -2.30848904482818   -0.85877803055747    6.26488452880031
O        -5.79117527628122    3.12039255088653    8.66977878486400
O        -3.78779370506395    2.74581239152315    7.77723378464000
O        -8.96330579801887    1.92805360467881    4.84586478667214
N        -4.86923752218847    1.92968176144604    5.49885675541987
C        -5.69428103205949    2.33021532638023    6.44018007285841
C        -5.05920062360167    2.77805665378400    7.76151040486660
C        -7.08200086299815    2.37424345930662    6.29787939174167
H        -7.64699735270286    2.72344784553231    7.14660447026773
C        -7.64889338550946    1.96604379657755    5.10921155453919
C        -9.86351731533217    2.34222739182888    5.85309382289497
H        -9.77342239344997    1.71788519693683    6.74583057979370
H       -10.85726377911009    2.22611262022011    5.42435975424270
H        -9.70067275661698    3.38870294775908    6.12347785707233
C        -6.77479400583744    1.55090812095577    4.05751595453586
C        -7.25521786169055    1.14414754812606    2.79881267328662
H        -8.32176615211011    1.13485573544787    2.63781448516613
C        -6.38433496793117    0.78166370665776    1.80716355501414
H        -6.75809349264947    0.47332921177572    0.84248237836479
C        -5.00152063748455    0.82721578010186    2.03187278282825
H        -4.32525816719301    0.56655794009063    1.23150509440103
C        -4.50419879013197    1.20841923168678    3.24918845134985
H        -3.44267916121335    1.29784017249630    3.42087159191540
C        -5.37596650214714    1.56597345412212    4.29497567976650

