67
CSD_code = LAYLAZ | q = 0 | S = 0 | Stoichiometry = C24H30N4NiO6S2 | MND = 4
Ni       14.18740667061737    6.14945405370774    2.70087356182061
S        15.76088386396845    6.92305109743258    3.95664801478133
S        13.83578081218837    4.52368430149509    4.07128381810519
O        14.48161335965769    7.52396534190860    1.44933335769802
O        12.83838324461134    5.52448625840369    1.54757477287814
O        16.05040945787488   11.83745223502283    3.03366158033178
H        15.68523554043675   10.98042952769354    2.76130604128387
O        19.86852571499646    8.49775483446304    5.27654495224952
H        20.63312248862414    7.91717734914763    5.21291144348751
O        13.80991512550729    0.27365669179946    5.44780370571788
H        14.63509924712131   -0.19813101979599    5.29778531190138
O        11.52253194143416   -0.51813932225589    4.01113129679688
H        12.30852050966664   -0.31250882242816    4.54590538605725
N        16.01881774812319    9.05519963616240    2.25174360673368
N        17.15035975174002    9.12757332323437    4.20815481618240
N        11.81868435670246    3.64492694335911    2.44020941265744
N        12.05907998081732    2.63044839391303    4.44513706829922
C        16.30683540620825    8.46402928240487    3.40188273824123
C        15.19976546882675    8.54440587843181    1.33550784088862
C        15.13076271240481    9.29196243454900    0.05653463619659
C        15.80080296257755   10.49756841682494   -0.13500191901498
H        16.38328934687102   10.92182627394355    0.66570018810069
C        15.70393259289291   11.15133168301680   -1.34933505804181
H        16.22003296096004   12.08891131669229   -1.49342594921559
C        14.94845398080264   10.61197399395638   -2.37835853143909
H        14.87767761634231   11.12801465524446   -3.32478298445841
C        14.28390692855507    9.40974956497149   -2.19340982720873
H        13.69657500332135    8.98667950541886   -2.99523455521713
C        14.37342815795274    8.75242599065383   -0.98248066361671
H        13.86634442580008    7.81301952566275   -0.82123632568585
C        17.83516011656014   10.32413683885969    3.75008702081993
H        18.01007004454539   10.23661615346062    2.67560108437599
H        18.79253454473919   10.36759111305671    4.26949892495606
C        17.01917277624181   11.59582508404432    4.01757878487192
H        16.54665055381335   11.52011011435099    5.01001764174551
H        17.68064722358108   12.46690524066813    4.01761807793676
C        17.49359101073761    8.64799743994256    5.52417863950136
H        16.64300432783658    8.10575604767628    5.94127646234997
H        17.72311243628388    9.51122689407251    6.15218594615613
C        18.71197700612279    7.71961494971724    5.50769505921994
H        18.78054291646919    7.20880335287398    6.47749380340375
H        18.57995077272861    6.96631036815180    4.72187890657775
C        12.48280194125699    3.56752000331760    3.57796794579729
C        12.03469661025358    4.56274530964588    1.50581069454427
C        11.19715128525987    4.41490063723986    0.29113926621640
C        11.20371411192336    5.42883426610850   -0.66388110009445
H        11.81048387169997    6.30453819469422   -0.48935637223585
C        10.43694314904767    5.30913725655755   -1.80676717225579
H        10.44120654660474    6.09780422294225   -2.54485952041636
C         9.66235562815539    4.17719916432308   -2.00550852711874
H         9.06396080835294    4.08314791584431   -2.89997796448672
C         9.65440899998636    3.16528256880350   -1.05781967845590
H         9.05087986169799    2.28357536745657   -1.21622037059984
C        10.41671359984973    3.27996459467758    0.08920577090396
H        10.42499390311514    2.50102063556446    0.83494251629559
C        12.74046274170614    2.41037280354139    5.69863072861451
H        12.08910370672883    1.82546705246486    6.34961709949079
H        12.94436536242195    3.38001935806942    6.16356925691268
C        14.07090078708555    1.66085865302689    5.55659740993902
H        14.60843607979772    2.02707178868909    4.67583944446591
H        14.68142442220451    1.85820996822620    6.44619882817817
C        10.88112462455060    1.85230143259737    4.11153899445136
H        10.20384079927372    2.50433363423957    3.55784017162392
H        10.40082353461559    1.52912907419085    5.03715773636677
C        11.18798347427411    0.60935048768616    3.25397819102941
H        10.28991992671777    0.33277729970306    2.69568783997520
H        11.98041311614742    0.86386536846712    2.53639072242087

