83
CSD_code = LAYMEE | q = 0 | S = 0 | Stoichiometry = C40H28Cl2N8O4Zn | MND = 6
C         8.10871298197067    4.36892761482966   22.74205628450018
C         9.51923441324934    4.13254113053448   22.43493369500644
C         9.90785947262586    3.63943233666916   21.19328005704555
H         9.15608746030102    3.46503714562926   20.44096719911950
C        11.24905813725631    3.37320716687324   20.98163689993823
H        11.58599533934241    2.97537329111546   20.03590394475576
C        12.14969987650550    3.62640052281257   22.00458133053293
H        13.20420007259483    3.44406118671181   21.87336798237599
C        11.66903931066916    4.11126722590704   23.21186251358562
H        12.32656836654101    4.32280971852184   24.04269315910856
C         5.93696268452595    4.14736019185557   22.16046368094090
C         5.60484489778160    4.49078719464545   23.50046290137032
C         4.24185376682621    4.53547528566497   24.03297366440156
C         3.21423996349150    5.19051526986635   23.35870671039881
H         3.41325953320298    5.68566618338312   22.41953115764225
C         1.94565915689270    5.22446469969425   23.90632079428782
H         1.15140927536070    5.73796125675812   23.38514854587916
C         1.69233497222169    4.60253744231955   25.11863892160414
H         0.69732222971343    4.62601042562224   25.53805562956289
C         2.71469930175214    3.95252811882649   25.79107410430983
H         2.51687095473148    3.46568480705039   26.73450578448774
C         3.99080818264651    3.92380406255363   25.25932211955904
H         4.79591843201537    3.40006917164361   25.75253342672740
C         4.94501593002839    3.79881204280710   21.14607940000026
C         3.92720289603374    2.89414458380257   21.43962253017832
H         3.90058747501798    2.42684179629767   22.41044560667618
C         3.00593722264162    2.56159006489719   20.46480276573892
H         2.22308649114233    1.85261784057409   20.68871320635213
C         3.08285189185109    3.13297585109810   19.20409922990222
H         2.35256842282274    2.87837302245522   18.45020000851473
C         4.10486492305568    4.01973724120540   18.90552221669153
H         4.17331668117997    4.45490583920364   17.91940946411241
C         5.04270858863394    4.34330040828441   19.86789859945990
H         5.84688817681644    5.02951001264940   19.64831764753017
C         9.25834840645328    2.13353980728648   26.65108865259802
C         8.20326745857491    2.91548950714746   27.28429467593778
C         7.33526676890546    2.35751092469612   28.21785215692483
H         7.47599041254138    1.33354401505118   28.52166313828694
C         6.30009747342011    3.13868246176614   28.69598663927647
H         5.59273653307704    2.73438487426265   29.40487960102495
C         6.17910299007960    4.44408131916669   28.24177712161616
H         5.37555469641210    5.07930384221927   28.57929327663791
C         7.10358424114509    4.92121045158506   27.32672871338902
H         7.05607036194815    5.92958797759066   26.94202047142871
C         9.97587886700416    0.11609984552882   25.91612812955434
C        10.75744705375548    0.84235525057254   24.96547283555928
C        11.32588217310716    0.26227358557507   23.75552538634318
C        12.58199471796043    0.65276263201547   23.29798217844933
H        13.15947129835203    1.35016186076783   23.88516336423605
C        13.07844575719465    0.12946424817015   22.11926160093858
H        14.05936281942989    0.41965334098395   21.77180418097559
C        12.31923611751622   -0.76564081321398   21.38229364784634
H        12.70791940694410   -1.17038242362922   20.45937657804993
C        11.06024689397129   -1.13878209281917   21.82647927240376
H        10.46453632344335   -1.82668139705806   21.24558065720539
C        10.56048448902595   -0.63561630342112   23.01300662280726
H         9.57009421141240   -0.89852290018590   23.35524271292383
C        10.02299465990583   -1.32888733691358   26.07706685360589
C         8.86966826015289   -1.99363848945703   26.49326805333494
H         7.97357514483170   -1.41633117468287   26.65049717434857
C         8.88093731701836   -3.36697719110917   26.64026195470074
H         7.98344559437530   -3.88154426660597   26.94931600792111
C        10.04005424285479   -4.08529638818422   26.39203823783830
H        10.04753795498841   -5.15879974375561   26.51024855996201
C        11.19205664305020   -3.42630625254101   25.99128716523913
H        12.09737411357309   -3.98480131557863   25.80486358133788
C        11.18773922068853   -2.05469651914058   25.82764281467211
H        12.09068055737884   -1.54240941652589   25.52916649663398
N         8.09103728049352    4.17256283324044   26.86448466813321
N        10.25462529019711    2.78476714226208   26.04729818639792
N        10.98432284193059    2.11809015744997   25.19555807934778
N         9.20890466467167    0.81491706957283   26.72707510426094
N        10.38579101625081    4.34962861166879   23.42035538668408
N         7.81125987386194    4.74934145519889   23.97600087815290
N         6.56413978095042    4.83649797673453   24.34177016378495
N         7.20583257567073    4.15798456031590   21.79035557748401
O         6.42824596942378    1.65868920543216   23.08296776223890
O         8.49143968844697    2.12256536197176   24.05778719221128
O         7.50748596497649    0.05580699889260   24.39232647245505
O         6.58263004237753    1.96175140544087   25.37545735015102
Cl        7.23741386854498    1.43554583374383   24.22569096825683
Cl       10.30994962105832    6.46439120152627   25.94731530057114
Zn        9.42387085993977    4.59363811382676   25.29956721349027

