73
CSD_code = LAYQIM | q = 0 | S = 0 | Stoichiometry = C22H34N6NiO10 | MND = 6
Ni       -0.00022054653612   -2.50144051784358   18.26710126955616
O         2.31343985571316   -2.19967054064112   18.83619467049941
O         0.91403309791791    1.93102956898585   23.24386562948950
O         0.62228513642419   -3.85634503869704   17.05956848842375
O         0.70673268969701   -5.00684585512140   15.27928334952175
O        -0.90767991211711   -3.63690816679929   15.57800270272801
N        -0.06741023166977   -1.18359520778920   19.65997871701839
N        -0.21948661007011    1.52251922810178   22.85166143529208
N         0.11784851173537   -4.18514407877516   15.93555610718941
C        -1.24447045533747   -0.70652419986370   20.08396599582043
C        -1.39931241007147    0.16623243387897   21.13160647028924
C        -0.25794335336927    0.62578180419078   21.81959290995712
C         0.96999910319204    0.09923669610097   21.37071648468665
C         1.03282813735574   -0.79946135866100   20.32881509810813
C         2.37557265213619   -1.39394487484393   19.98924761050140
C         3.21135835811306   -3.29750988729535   18.85350315555587
C        -1.40742953547011    2.03112465686116   23.57358560970192
C        -2.21253863491300    0.85838853573472   24.14162334737663
C        -2.23263612595465    2.93261685633657   22.64800746324844
C        -0.90649979644072    2.88073803747723   24.74341897716123
H        -2.11133339063564   -1.05898142146011   19.54382356992253
H        -2.39728833243180    0.47852834334110   21.37705989725390
H         1.87091277407630    0.39877683897618   21.88256645230103
H         3.11404258162048   -0.58689970831412   19.84945518713335
H         2.67856215081789   -1.99787465235141   20.85464661488068
H         4.24960072479987   -2.94494879847857   18.83901388666310
H         3.04353229513053   -3.91882473872309   19.73641758367894
H         2.99492150856549   -3.87649985414295   17.95820695282510
H        -2.65630351078761    0.23091328127334   23.37728191282392
H        -3.01226779421435    1.24755029197726   24.76661945453380
H        -1.56988579095486    0.23570373843711   24.76011015498912
H        -3.03837078591174    3.38500239092985   23.22039590971386
H        -2.67036133860512    2.40067568376959   21.81073986268394
H        -1.60411856530703    3.72900586227516   22.25519838265080
H        -1.75435103655031    3.26188682836900   25.30501635454839
H        -0.28107266146747    2.28809815201108   25.40556134089004
H        -0.31413343433011    3.71799924279041   24.38471360042025
O        -2.31383114872734   -2.19925476955408   17.70482494127803
O        -0.91387750359689    1.92901130203483   13.29473414692938
O        -0.61297317015856   -3.86055865298018   19.46992753994363
O        -0.70677349157110   -5.01248410022327   21.24858903038639
O         0.90309165777384   -3.63405727993789   20.96511922958247
N         0.06692220847798   -1.18394661235957   16.88043503510216
N         0.21950836979583    1.52140686846127   13.68824068295135
N        -0.11562716335916   -4.18818869306182   20.59750577409119
C         1.24401428062474   -0.70607631920609   16.45729254608248
C         1.39888428691545    0.16698953006943   15.40998715904606
C         0.25767106051390    0.62571081711882   14.72110383876307
C        -0.97038538311290    0.09911751871780   15.16984161618708
C        -1.03341752188890   -0.79958192109228   16.21166322217197
C        -2.37615533244868   -1.39404357846042   16.55133348317383
C        -3.21296351374066   -3.29614913111508   17.68882535679449
C         1.40783177396999    2.03004610754683   12.96689692365071
C         2.21454615332231    0.85737931249738   12.40099535756385
C         2.23116262215790    2.93333141376496   13.89239322186449
C         0.90747143458096    2.87781613224695   11.79548217307114
H         2.11068295074710   -1.05845257660533   16.99783886456727
H         2.39678977558885    0.48009604509702   15.16530235535320
H        -1.87117575084318    0.39852246619714   14.65768748158452
H        -3.11474366720277   -0.58706549483692   16.69085581846106
H        -2.67914750008279   -1.99851892271268   15.68631723239902
H        -4.25078562960522   -2.94237346396172   17.70327493249348
H        -3.04588680887515   -3.91849406446047   16.80652500788349
H        -2.99705849669377   -3.87463603286668   18.58457556719845
H         2.65837559805896    0.23125146821133   13.16638987221046
H         3.01438448479799    1.24657772971794   11.77615740779048
H         1.57301350459514    0.23330075748827   11.78274809013670
H         3.03720938027989    3.38576030189549   13.32048589402801
H         2.66827909475698    2.40273496001219   14.73083649846803
H         1.60145687736428    3.72962695521574   14.28348828970399
H         1.75564566179068    3.25893294288870   11.23434309486289
H         0.28326623370577    2.28382537247694   11.13338810450903
H         0.31403934797844    3.71505403988525   12.15247159955988

