43
CSD_code = LAYRAF | q = 0 | S = 0 | Stoichiometry = C18H14FeN8S2 | MND = 6
Fe        3.61555988544341    2.55809540577730   11.12733626412954
S         0.79350693511575    2.92752970856163   14.55589542715805
S         3.32944200004436    6.68304892953208    9.20615990254950
N         1.93093829268154    2.68859571953318   12.05097677960688
N         3.19307423278321    4.07646601953274   10.09475111094318
N         4.35475499010012    3.68190549959697   12.58559485277867
N         4.54886180228881    3.83108094208617   14.77462557290486
N         4.01178394545084    1.14162079883156   12.38111590538927
N         2.86073672353579    1.47356770820545    9.71603715863966
N         3.00967631190099    0.78607818152923    7.62732117378925
H         3.36458825207610    0.62917896471225    6.69914423003134
N         5.20414903666461    2.39526374843145   10.04234424035258
C         1.44986845394526    2.81470173132894   13.11658752597521
C         3.24370158737972    5.19742651058334    9.74809095876389
C         4.49709075884991    4.98853037449379   12.91433391099742
H         4.49398339900501    5.75404328440246   12.16594685110217
C         4.60882064389753    5.09832602780560   14.27179206956468
H         4.72316347336342    5.95604294610112   14.90124829355887
C         4.38244890168980    2.99115552982775   13.72528111234321
C         4.24569009135915    1.56680275192939   13.65460805396848
C         4.34073846511021    0.69111588226563   14.73386502156148
H         4.50648613473348    1.07840008265917   15.72700114005495
C         4.20506676698830   -0.66398241931036   14.51393823309850
H         4.25986958225916   -1.36535113160985   15.33119557280201
C         3.99188856410785   -1.10265519018782   13.20802499597504
H         3.88336446373930   -2.15320739474003   12.99096504496998
C         3.90362775506274   -0.17514429114987   12.19232680121683
H         3.72210143105068   -0.48690634345987   11.17395504413487
C         1.66852178094325    0.94343529698214    9.35567071886129
H         0.84683466918909    0.91977224726207   10.04069164433530
C         1.74194353432120    0.51615805593187    8.06007260862293
H         1.01304806132203    0.05355066020651    7.42741527602592
C         3.66618392336415    1.38041777639908    8.65721027670569
C         5.00190401057598    1.86952170783287    8.80006678191594
C         6.00497078065067    1.82698507958042    7.83216804928388
H         5.79668111926728    1.40959639319870    6.85875354427618
C         7.25086697730990    2.33535261422732    8.13434354047350
H         8.04350885546707    2.32797355906958    7.40308836737986
C         7.45957429161427    2.86472357621463    9.40778186087461
H         8.41737907816143    3.27524860122747    9.68340332170436
C         6.41909225029359    2.87165777515664   10.31259212556406
H         6.54620791718686    3.28638878131677   11.30136557372348
H         4.51529986972483    3.58328789811546   15.74941306191873

