57
CSD_code = LAYTIR | q = 0 | S = 0 | Stoichiometry = C26H21BrMnN5O3 | MND = 6
Mn       12.36968233071336    2.12888115027793    7.40438095511007
C        12.85595841731898    2.65951547227785    5.77424940304167
O        13.30348265235413    2.93025767650469    4.74811065356599
Br       13.61226762350595    4.09572543240139    8.28093072992970
N        11.83539822587299    1.67722824371973    9.29831777050945
O        14.87726444787931    0.62673726429239    7.23191913040642
C        13.87729641619644    1.18426280986029    7.35511727377875
N        10.67232954455863    2.13238020570149   11.14781974991121
C        12.19474326793049    0.76664231912017   10.25140691425885
N        11.12750159665018    4.92059319110370    4.58318927228126
N        10.72190757572927    3.39477908747930    7.72675935757796
C        11.42923717596347    0.80588048690618    6.67804820932606
O        10.87472399652525   -0.05857464620789    6.16646969721907
N        10.14822759877737    2.91911758236260    4.83736727101395
C        13.08905494386796   -0.30101388435930   10.20807600258117
H        13.63386003144113   -0.52687971603606    9.30539983421977
C        12.53018992030888   -0.75530954456760   12.52115581863671
H        12.68781250139800   -1.36516611493764   13.39757276837873
C        13.24273950792242   -1.04781205787331   11.35386662055834
H        13.92961120352805   -1.87987662794365   11.35678440655526
C        11.47204593259085    1.05100329095306   11.42985802643080
C        11.63504159281163    0.29119398341965   12.58109858582576
H        11.09307111644632    0.50802066438541   13.48861161145395
C        10.93986206929995    2.48561842335648    9.85551011246337
C        10.38269160682764    3.53668997481551    9.02814232984189
C         9.63397115847773    4.62588427228605    9.47275437468808
H         9.43249221558692    4.77360159742133   10.51811176682215
C         9.18755232061624    5.55786591762670    8.55464179568710
H         8.61799842661440    6.41440588292312    8.88038513431437
C         9.48040179389425    5.37111590098868    7.21585808248764
H         9.11845685844718    6.05203731111106    6.46320016492995
C        10.25533737708769    4.27730239407211    6.84231942282185
C        10.53248168912636    4.02407852569996    5.42701538597010
C        11.14795437163915    4.31272486742940    3.35134731453667
C        11.65424500971479    4.70353403736997    2.12062848567772
H        12.16112382387755    5.64720729682906    1.98766117777338
C        10.85192002542621    2.59250747078497    1.23292664482424
H        10.75506033055855    1.94055787163676    0.37751571251292
C        11.49244547649357    3.82463566989506    1.07049043015482
H        11.87305260907151    4.09175352945003    0.09579579183973
C        11.06112545267506    7.37833075346265    4.44156859773630
H        10.93243245840653    7.34356581162304    3.36262809971326
H        11.62622434506795    8.26999029000676    4.69825760102724
H        10.07726494307956    7.44938681579617    4.89952430233492
C        10.35598925304514    2.19014956596256    2.45279021204210
H         9.87510467946848    1.23559311882948    2.59102206540729
C         9.76992430477515    2.72305973978870   12.10408021063043
H         9.43045587063326    1.92256414234118   12.76748079587484
H         8.89309680269895    3.10926248095865   11.57933406412077
C        10.51057874125611    3.06120491400048    3.52661731761665
C        10.45956267810304    3.81293477086337   12.92248269408269
H        10.88179216067840    4.57912443644595   12.27589521318515
H        11.27059460273665    3.38449512086857   13.50634356994133
H         9.74755633751984    4.27531959998042   13.60086385355898
C        11.80890651675631    6.14226359762415    4.93342799324371
H        12.80749850960770    6.11315066182888    4.48577553040045
H        11.92869756044925    6.17419696708578    6.01969368917770

