66
CSD_code = LAYVOX | q = 1 | S = 0 | Stoichiometry = C19H41FeN4S(1+) | MND = 5
C        -3.58622087991042   -0.78610883290399    8.44591380903395
C        -5.11313259829606   -0.34429123372230    6.49978953577153
C        -3.77190653263032    0.00135741773192    7.15017343696704
C        -2.64518629071755   -0.21594307161847    6.18266363014427
C        -2.51993744292901   -1.54594150104080    5.50880011491524
C        -0.87416073332660    0.71905942568857    4.90087741951034
C        -0.60426733690496    2.14862607261072    4.42469085731289
C         0.91212594843001    2.84203890948382    6.17628865476322
C         0.82706110393771    3.16600810208611    7.66252997561183
C        -0.51457752319189    4.46203959636814    5.13042704775771
C        -1.95608121296953    4.91662632165613    4.90649504424128
C         0.09402850860683    1.01042814629164    8.53778889936153
C         1.21478234695573    0.75173835340142    9.54567639613327
C        -0.65836500155404    3.11171226513485    9.53021315296765
C        -1.72811409860150    2.40725612207998   10.35014039908762
C        -4.21085840488102    4.54276044020809    5.68210995350059
C        -4.85658947225665    5.76096448460933    5.02217498355071
C        -2.60720307287073    5.73077336241484    7.08865588153303
C        -3.37412598698879    5.43257085173212    8.37067286957786
N        -0.40347433031823    3.06045035733702    5.55705744176155
N        -2.80214089026173    4.68679610584042    6.07846111512090
N        -1.87032957256422    0.77964650346518    5.95052173602241
N        -0.26920950087159    2.41437772167113    8.28887362298702
S        -3.82161236316492    1.80906911324697    7.54603382287797
Fe       -1.94377310381896    2.52817567493780    6.90853864199036
H        -3.61813755153948   -1.85695060098215    8.25648874817397
H        -4.38484709504785   -0.53480133229191    9.13906036040456
H        -2.63504333725607   -0.54231256077584    8.91232741514867
H        -5.23216474511270    0.19358942402642    5.56131095044893
H        -5.91777134359872   -0.04587141172106    7.16752284215982
H        -5.20171903350316   -1.41112038453237    6.31007413147261
H        -2.89839190728379   -1.49029279981016    4.48713363856864
H        -3.08842468877611   -2.30436965750637    6.03655231815185
H        -1.47737424920837   -1.85692001796445    5.46442440275791
H        -1.22423549890287    0.12992849849239    4.04674974713320
H         0.03630149748401    0.23924849148162    5.27556452097410
H         0.25477925570529    2.16752211984489    3.74114548738016
H        -1.48670043383713    2.48593217846094    3.88154630019210
H         1.68288316647821    3.45900173660725    5.69794885273638
H         1.20141013270163    1.80056135557868    6.04852554100399
H         1.78996279907656    2.96525536656763    8.14519283575988
H         0.61377413921495    4.23017802793213    7.78649210526522
H         0.05569502779211    4.62502622078806    4.20570433580407
H        -0.07022004756512    5.08362385778293    5.90738893492940
H        -1.92903618508371    5.97902684797666    4.62500041423580
H        -2.38668372884173    4.36526344021622    4.06975392795701
H         0.37099836559962    0.56253056555157    7.58383480869674
H        -0.81193773019816    0.51026154102805    8.87640569127032
H         2.16136023651811    1.17888283754320    9.22501777388145
H         1.35399348963626   -0.32205387432956    9.63834193450593
H         0.97220196993417    1.14164146697992   10.52923019735744
H        -1.04380656487797    4.08889118136531    9.22870525410372
H         0.22811334342832    3.27795915235624   10.15515313639751
H        -2.57048648660894    2.13571840322774    9.71813029030342
H        -2.08296594695110    3.08801989921705   11.11864028029503
H        -1.34970712828928    1.51807412285550   10.84442638356190
H        -4.77581581293049    4.27031143466732    6.57236807945800
H        -4.26071443187641    3.69162536748526    4.99725018645198
H        -4.89925264820635    6.60668930163059    5.70246873841449
H        -5.87541764580704    5.50832852903286    4.74249206915406
H        -4.32489646293437    6.06161952876674    4.12280157920228
H        -2.88955102113838    6.71922823192173    6.70113639310778
H        -1.53915958500617    5.76278853218868    7.31628267640256
H        -4.42243070928158    5.69833801571532    8.27862843988067
H        -2.95748116772034    6.00528653555010    9.19480390753451
H        -3.30503179508236    4.36874971836124    8.59820592686045

