55
CSD_code = LAYVAK | q = 0 | S = 0 | Stoichiometry = C24H24Cl2N4Ru | MND = 6
Ru        5.19397637430902    2.28451769538103    9.09216256791498
Cl        6.97541043328618    1.98641628830206   10.62185544209504
Cl        6.64127641182711    2.34394197053639    7.22094094352182
N         5.08142260233234    0.31431899638239    9.19568288022698
N         4.03931550414118    2.11614234278015   10.67251487793959
N         5.34767134013200    4.25174687079600    8.98595752606444
N         3.76984262346248    2.64279387197726    7.78773915969346
C         5.64199375874075   -0.54378184596849    8.34558986566282
H         6.02670333615021   -0.11297313971875    7.42846669923099
C         5.75925169414494   -1.89059842205747    8.61368968784620
H         6.23573425741243   -2.54046698254663    7.89670736367998
C         5.27815821179913   -2.40097228256105    9.82171843098556
C         4.68747019056015   -1.50697575688697   10.69863951152317
H         4.31287596695111   -1.85545327339455   11.64811391178441
C         4.60120661079360   -0.15440055509049   10.37104619813399
C         3.99110928009896    0.86989055413677   11.20482843185002
C         3.37122280530317    0.63112380998994   12.43062420159893
H         3.35859439741093   -0.36771812650975   12.83682124181147
C         2.78791419280255    1.66719110065256   13.13767719125428
C         2.83328033439418    2.93926809281312   12.55712184819635
H         2.39138685349589    3.78497236859520   13.06049121835125
C         3.46028754833810    3.11224480886981   11.34542703418391
H         3.51634623941072    4.09298070571448   10.88745855372870
C         5.42158532206231   -3.85090408597875   10.15354079461874
H         4.81059472245734   -4.11960092181113   11.01141605183373
H         6.46237340172447   -4.07206622988232   10.38919753879237
H         5.13556287854490   -4.46812421377035    9.30402032337836
C         2.14776432853398    1.45512289313708   14.47069432410065
H         1.17865730741171    1.94885219002483   14.51324131956274
H         2.77388693546449    1.88421030554049   15.25279801014750
H         2.01687812279241    0.39646500125959   14.67799723864736
C         6.19775244827150    5.00435741848692    9.68187133503731
H         6.70880098252752    4.50486767901615   10.49677557674503
C         6.44376214162438    6.32632832481104    9.37957909967486
H         7.15422152712872    6.88702620641326    9.96634942655758
C         5.78574504490145    6.92486443261379    8.30262293021987
C         4.89649971927387    6.14118716031726    7.58684211194607
H         4.37542795915095    6.55883354584406    6.73988954757521
C         4.69376353863227    4.80755114882836    7.93955954633323
C         3.78033673999306    3.89556875812458    7.26831364299508
C         2.94946216068517    4.24386154754168    6.20482592519734
H         2.98568220646255    5.24429364024513    5.80396628870342
C         2.09057598834523    3.31255823759117    5.64805813864691
C         2.08685876647237    2.03307146330472    6.21255030717607
H         1.43617749744426    1.26580152035673    5.82297885421925
C         2.92999471022485    1.74955257449768    7.26184240704684
H         2.94831666997674    0.75996223853528    7.70341707924832
C         6.05623567203795    8.34695832978037    7.93185715203475
H         6.07175411664102    8.97768340422770    8.81856128640549
H         5.30603620553431    8.72178891410465    7.24033747450952
H         7.03275189086835    8.42185415051138    7.45376098873494
C         1.21911138602643    3.64359221492050    4.48069578904615
H         1.06822469604010    4.71690468353759    4.39753930525132
H         0.25258553302949    3.15213070392687    4.56913459149425
H         1.68936841241407    3.29373767176175    3.56129080684867

