108
CSD_code = LAYWOY | q = 1 | S = 0 | Stoichiometry = C59H45P2PdS(1+) | MND = 5
Pd        8.93445042338395   13.09168406296043   20.44448011329181
S         8.63735999354469   15.15014818005948   19.10648040325636
P         9.90726612840481   14.43722811789462   22.09018432298567
P        10.39991877073857   14.64105572284938   18.37497123304986
C         8.66349669708501   11.16856814263170   21.37355887248706
C         7.60609910438535   11.45547610167570   20.48613104517123
C         7.89927495033298   11.69681036638327   19.13452199154710
C         8.43542698425496   11.05947413938845   22.81502145336573
C         7.55117148242113   11.92189323157414   23.46749914101103
C         7.36732841230753   11.83960628680926   24.83302002598931
C         8.05148100710424   10.88722388662037   25.57175070490137
C         8.91805285963143   10.01397053678240   24.93496615964790
C         9.11422020476620   10.10075220324539   23.57014974775142
C         6.87452465622920   12.17340510603224   18.20796857097345
C         6.80676728667163   11.67081905897974   16.90831768094900
C         5.81883546638741   12.10249746133832   16.04354134331377
C         4.90357127579403   13.05868211879915   16.45151683728239
C         4.97470647140409   13.58110720540307   17.73422614527259
C         5.94677647143420   13.13948710988715   18.60817806255433
C        10.83229617551207   15.88932983407173   21.46187038677198
C        12.00386789963889   15.64326482106611   20.76156115776404
C        12.88319823885711   16.70327585205113   20.43661983881728
C        14.12861585954647   16.48436744634460   19.80975228743493
C        14.96151979979851   17.53185155910557   19.53520925514634
C        14.58077725772335   18.84552136259798   19.85000451888309
C        13.37604804691658   19.08983433230839   20.44668901312171
C        12.50021776444961   18.03094196977011   20.76360922100768
C        11.26148482496842   18.25312518765258   21.40119008064544
C        10.45462738616682   17.21107191621699   21.76128487604581
C        11.49787412696077   13.63074123531280   19.44759407590231
C        12.27371872863209   14.22907015622766   20.42558845090236
C        13.19010467788489   13.44479272323784   21.17423686376715
C        14.07001213198354   14.01729943997076   22.11705161337375
C        14.94380944123383   13.23355931992975   22.81706430806425
C        14.97139929275528   11.84459319480418   22.62144453488683
C        14.12293322288489   11.25871666252445   21.72414721759606
C        13.21674487054536   12.03755791140203   20.97732108228091
C        12.32595579311541   11.45050082286706   20.05136047351618
C        11.49391178969891   12.22236558604347   19.28876113548503
C         8.48840063297854   15.13294896216683   23.00176393863153
C         7.26365354767360   15.14210662874130   22.33018701642000
C         6.12687495455534   15.62531514864027   22.95091731232112
C         6.19490762508476   16.08415125894649   24.25702900739828
C         7.40013758547066   16.05046961144903   24.93842872803764
C         8.54378946733974   15.57566948387783   24.31948545733687
C        11.07282690432895   13.92326782535849   23.39261241124693
C        11.32225987322433   12.57101406278098   23.58149367047003
C        12.16878776139928   12.15076260438371   24.59020926322490
C        12.78117895437530   13.08329542150563   25.40975272076534
C        12.56566747496682   14.43643703412151   25.20172021631061
C        11.72050314125097   14.86099000104052   24.19334316025230
C        10.22034841124468   13.71124233585950   16.81697415376226
C        11.27108118265583   12.98913931481374   16.25533929475183
C        11.10699655842346   12.39539909955831   15.01802062745690
C         9.91073744943830   12.53180334576129   14.32997990196550
C         8.87253086772306   13.26364994507448   14.88067084337570
C         9.02471236828516   13.85385049991581   16.12243584920770
C        11.28960014079320   16.13548694154226   17.85828278953070
C        10.69994243219573   17.37844592318234   18.04620724980713
C        11.34651136073090   18.51770596231276   17.60422164027468
C        12.57191460675763   18.41596692305180   16.96778279107742
C        13.15404719526274   17.17352407807647   16.77091743515476
C        12.51714250003296   16.03056946077360   17.21417555578650
H         9.50804612516993   10.58843967634687   20.98438016153547
H         6.60891569387257   11.65952703180902   20.87416579308350
H         8.71157270542758   11.12022987029879   18.67813134365802
H         7.02255271187414   12.67899153255946   22.90009024676092
H         6.69017984385031   12.52324708899983   25.32285289197428
H         7.90932443003328   10.82540609785185   26.63957279556133
H         9.44540815941949    9.26465557938078   25.50566496621142
H         9.79298314013906    9.41712600583261   23.07852053651013
H         7.52102890756525   10.92607542982532   16.58520231340912
H         5.76364177023744   11.69146735710021   15.04668237616460
H         4.13936694590956   13.40086310982441   15.77071941327916
H         4.27034607259475   14.33580036849187   18.04958588609604
H         6.01522414996777   13.57048831707108   19.60396818085746
H        14.42000653244482   15.47296072590947   19.56609469528878
H        15.91959164067462   17.35488128127908   19.07064098265646
H        15.24977817114908   19.66011015577870   19.61869938175177
H        13.07797456672273   20.09792593449905   20.69358217623572
H        10.96902062962450   19.26864699141439   21.62421153049413
H         9.52034124996817   17.38713058860914   22.27524978104562
H        14.05096501982724   15.08532656814060   22.27062268441497
H        15.62099420935869   13.68223283806362   23.52731944849284
H        15.66780628534147   11.24329518125167   23.18535354134443
H        14.13833526551931   10.19007104757129   21.56826818686750
H        12.33262850801760   10.37559405084281   19.93576406386038
H        10.87206967318561   11.77478221512112   18.51719796560395
H         7.20664551409919   14.76879216840502   21.30336137009751
H         5.18585401015245   15.63786960550515   22.42140994678110
H         5.30786681627803   16.45730832587480   24.74544485349790
H         7.45155510285442   16.39234103874097   25.96115540741614
H         9.47155471250461   15.53797276777224   24.86970310020894
H        10.85420078586478   11.85515125289201   22.92180844038743
H        12.35076299464888   11.09682078228234   24.73512526202784
H        13.43642916177019   12.75842233239854   26.20336152060652
H        13.06035249440329   15.16472190663416   25.82690975180443
H        11.57715609573408   15.91858306959553   24.01749515038419
H        12.20812033093510   12.88062849390421   16.78405992955505
H        11.91785564934006   11.82816287660131   14.58653124506801
H         9.79258877373481   12.06942571008382   13.36212024671227
H         7.94275640154499   13.37951005307083   14.34597605428458
H         8.21531707243726   14.42244955811347   16.56063188772946
H         9.74108448392747   17.44621161698481   18.54103709849496
H        10.89027272641380   19.48411108553929   17.75392276018815
H        13.07407257393677   19.30537187742620   16.61977826104744
H        14.10659293344744   17.09625906175768   16.26946051513420
H        12.97075998613930   15.06172912669393   17.06347057419543

