57
CSD_code = LAYXUG | q = 0 | S = 0 | Stoichiometry = C24H22N8NiS2 | MND = 4
Ni        7.13876962119251    7.76384122538056    0.31572545195746
S         8.86535389462489    7.06758146625763   -0.93949969350252
N         7.67184188339005    9.13186939689358   -2.11956387418452
N         6.85023596849614    9.07459454346529   -1.03696558972250
N         6.48695998887977   11.31216322406291   -3.00585993459820
H         7.33044988491926   10.78235069771502   -3.19000265076919
N         9.48087806421118    8.18483204435045   -3.22320592667609
H        10.29503673520749    7.60758052583476   -3.06400410644857
C         8.61138750688978    8.23868228755455   -2.18133639701018
C         5.89120207876039    9.96586477825398   -1.01510184936845
H         5.18863783682025    9.92800446992098   -0.19336335276613
C         5.66922777573848   11.00531463162032   -1.95343256570646
C         5.99674387321710   12.37347251766887   -3.66706734366601
H         6.49418359356679   12.77820373452299   -4.52697185010207
C         4.83002973271017   12.77945270335698   -3.04862626861241
H         4.20806513964608   13.59944946226959   -3.34812798683991
C         4.61871991050756   11.92527714499692   -1.96801768418722
H         3.80655489004481   11.95793672844852   -1.26942812532115
C         9.40786734505318    8.84490893017412   -4.44500874155001
C        10.58396901664816    9.05847160614965   -5.16297464892722
H        11.52469551512139    8.71541205149357   -4.75664719052689
C        10.54648675686506    9.70616371190341   -6.38225769027012
H        11.46439649930286    9.87022241204630   -6.92686632442943
C         9.34102845601904   10.14511915004930   -6.90566038272996
H         9.31586413108861   10.65616265543086   -7.85585270710235
C         8.16804631485649    9.90815506278360   -6.20896788557941
H         7.22039088005238   10.22249230074533   -6.62100115481726
C         8.19386799638409    9.25656528034491   -4.99002546866987
H         7.27609581470103    9.03238194717804   -4.47119273698274
S         6.03797269996200    8.89382181171298    1.91277898898846
C         6.15640757237145    7.62881061641041    3.08041513123683
N         6.77369229012113    6.51227666867158    2.84238876481657
N         7.29312203610825    6.36058333961894    1.59426472569609
C         7.87886448969063    5.21143362545316    1.36859136806025
H         8.26828580954843    5.03236989034433    0.37532721570706
C         8.07908379384795    4.15767883677237    2.29583972105837
N         7.76802612735534    4.20085999969497    3.62688212422586
H         7.34939349666927    5.02321327702666    4.04454779181068
C         8.12434152834144    3.04649065473863    4.21382970949622
H         7.96858593157853    2.87798853434080    5.26168737901387
C         8.67789344896888    2.21678509481582    3.25798036369154
H         9.05367390457009    1.22635770979869    3.42163708054388
C         8.65469540599591    2.90950510160565    2.04904460792724
H         9.01082541153447    2.56206167099825    1.09976237651391
N         5.58510643090178    7.88791402960971    4.28503695098907
H         5.33024943263697    8.85472021493121    4.43224930457342
C         5.32544763981953    7.00329168271434    5.32611827797849
C         5.18871792055716    7.51036546387280    6.61791873131513
H         5.29155979642132    8.57294747933523    6.78554129857629
C         4.92658390657490    6.66036461667842    7.67447145762156
H         4.82738096405294    7.06397310908523    8.67113975001980
C         4.79250486481334    5.29784680033672    7.46103118342019
H         4.59366278788837    4.63562073485962    8.28967411692023
C         4.89840719956981    4.79510331365439    6.17521002407420
H         4.76869190419063    3.73815762594739    5.99439591054303
C         5.15570386531263    5.63779962276541    5.10992071890395
H         5.19233223563661    5.25103178398908    4.10451960547376

