36
CSD_code = LAYXOY | q = 0 | S = 0 | Stoichiometry = C15H14MoN2O4 | MND = 6
Mo       -0.08096076813993    3.40971487173437    0.72663146973375
O         2.37936535991387    1.51333400314721    0.69429919227664
O        -1.10174644092986    2.31216490747108   -1.98835513040911
O         1.25146154199328    5.62528937874822   -0.96173424203904
O         1.05977983948022    4.91092597238444    3.19084827725877
N        -2.85868116556831    3.70820492901538    1.57597409282753
N        -1.28412539986891    2.09461179031290    1.88978076538771
C        -1.90467642942780    4.36388803448821    0.89585036902111
C        -2.27347081091092    5.60896286584770    0.24362221841438
C        -3.28135414228424    5.65992871859016   -0.72359308803507
H        -3.83068188986608    4.76155098083599   -0.97236965962197
C        -3.53608480812045    6.82945900422878   -1.41071729895328
H        -4.30328319447860    6.84406034955880   -2.17204536513744
C        -2.82369939152347    7.99150719932918   -1.13566968867562
C        -1.82953445052249    7.94315458222304   -0.16478237973563
H        -1.26109053407345    8.83386547890775    0.06023932051611
C        -1.54292120585965    6.76945537516026    0.50150443043873
H        -0.75670034414865    6.74142138461143    1.24396223880187
C        -3.11313902136649    9.25184142623871   -1.89031661158895
H        -2.59015030971854   10.09770539438159   -1.45175987010336
H        -2.79136750962225    9.14861717335234   -2.92655535206939
H        -4.18189192048910    9.46123922254250   -1.89408741451806
C        -2.47293864317884    2.50472521908653    2.10090277050801
H        -3.21260810714661    1.95045658650716    2.68454239504817
C        -4.21021433305466    4.17365885631864    1.84000607589622
H        -4.27436023195041    5.23979059768488    1.63031961136428
H        -4.93283887312323    3.64578961040951    1.21356400814678
H        -4.46353079640946    4.00137479565562    2.88712757860648
C        -0.87005540520327    0.83853723361429    2.43839593587509
H        -0.00468139644223    0.99937640324531    3.08597359170961
H        -1.66737908309296    0.34899663407614    3.01245885502874
H        -0.55413762039525    0.18060120434045    1.62524576792852
C         1.49327157357917    2.23824141473107    0.69196573263274
C        -0.71757808067006    2.65306551228388   -0.96738024810369
C         0.78943439271444    4.78503136598671   -0.33552848753443
C         0.63406959990331    4.30625152295010    2.31918013910815

