36
CSD_code = LAZDAU | q = 0 | S = 0 | Stoichiometry = C17H12MnN3O3 | MND = 8
Mn        4.62840083825185    1.49982002039570    2.46951886211414
O         6.60779462207468    3.12382037225119    1.04409689666145
O         2.41230840145224    3.39669580973991    2.15711831747979
O         3.89770156068993   -0.13596480673873    0.14794488098872
N         8.21231985768070   -2.02670263665579    6.07773821089584
N         7.76263989850867   -1.67474886449222    4.93906862590176
N         8.07969933731844   -0.40006170119387    4.72540490400944
C         6.16985921728673    0.60834661072131    3.70401852034114
C         5.11628734450454   -0.32586724958180    3.53850481073564
H         5.24153483228917   -1.34788894754881    3.20879902854331
C         3.93395598462133    0.23992715349311    4.07332803996039
H         3.00094023025345   -0.28431913397971    4.22627121053310
C         4.25987308855221    1.51345473456054    4.60225771470479
H         3.60900059724416    2.13410689521442    5.20365404820971
C         5.63300856784984    1.74853984249237    4.36882669300079
H         6.21133218601158    2.56572419015768    4.78022833509487
C         5.79987791565642    2.49845513936386    1.56863949899330
C         3.28472751895522    2.65682510574901    2.24229445761637
C         4.17856260025984    0.53393564700828    1.03501778184398
C         7.63193334345339    0.28881460556254    3.53834972397543
H         7.78701725863750   -0.37795088208200    2.68469585090262
H         8.23181294514467    1.19356917607883    3.40824560531207
C         8.75797970189103    0.08845290022839    5.78624732662045
H         9.11133301574462    1.09677707233244    5.82502804999671
C         8.84607832280165   -0.97986503126078    6.66486733393445
C         9.46251584751720   -1.07784158479196    7.97576394238671
C         9.38153704824189   -2.27729683319013    8.68129368885466
H         8.86138453047044   -3.10706930368445    8.22868170636155
C         9.95842653959420   -2.38966873397283    9.93105591120963
H         9.89123441462957   -3.32209442175426   10.47206953949363
C        10.62258411122169   -1.31031854605971   10.49172570599943
H        11.07356504505513   -1.39877634292285   11.46913151831028
C        10.70825602626461   -0.11608526918736    9.79517558845635
H        11.22680775386480    0.72647863106845   10.22931246009948
C        10.13271189189845    0.00327726374277    8.54428240642244
H        10.20589760410892    0.93779911893641    8.00754280403571

