34
CSD_code = LAZDEY | q = 0 | S = 0 | Stoichiometry = C16H12MnN3O2 | MND = 8
Mn        2.50323452226557    6.92588680525295    6.51126532302252
O         2.05064357611039    9.80555209085089    6.23615041130566
O         3.81828550948663    6.85221149855604    3.89545823675845
N         4.26172110956128    6.36235723239986    8.70058779894726
N         4.11106733018572    7.06702346199396    7.56299492204750
N         5.16765554584172    7.76343812596454    7.35857976007580
C         2.12825232495009    5.54862369813261    8.11228502080067
C         2.14111831520469    4.83732140082416    6.89095387673213
H         2.74455035222959    3.96627543901968    6.67389141083823
C         1.06508003331683    5.31550392405019    6.10768006708829
H         0.71525614476380    4.87920260021966    5.18242055061989
C         0.41277675263357    6.33820674059601    6.83364097543112
H        -0.52155828595564    6.80732202987270    6.55822393929222
C         1.08016664826527    6.49190144304941    8.07319808026689
H         0.74146680439343    7.09641346891297    8.90345647772621
C         3.31549133186338    6.89890890835856    4.93234016764941
C         2.25068446218249    8.67357724370545    6.33113655243393
C         3.20345413762104    5.48137289772288    9.15770243339844
H         2.84055888278341    5.82650726502870   10.13380527654296
H         3.60225448753674    4.46529121195911    9.26571661326296
C         5.47271630038414    6.63304286290171    9.23043810963094
H         5.81133095251498    6.18269306379298   10.13917053256102
C         6.05327054638469    7.53799698319070    8.35839329809704
C         7.35579553676650    8.18085828038831    8.39474040098315
C         8.25438492405963    7.94801812576995    9.43381610618060
H         7.98924819202081    7.28220893892714   10.24173618665312
C         9.48946274878997    8.56882540788406    9.43418442880228
H        10.18234625343761    8.38407031796398   10.24210621812017
C         9.84003777748896    9.42466051537688    8.40291834731580
H        10.80658686859813    9.90635782293796    8.40720830748119
C         8.94907422552476    9.66088454449275    7.36766953697916
H         9.22117267097775   10.32805120280658    6.56350377320560
C         7.71306847684606    9.04468599334647    7.36005300212140
H         7.00454454096565    9.21334845375037    6.56447385762794

