61
CSD_code = LAZFUO | q = -1 | S = 0 | Stoichiometry = C31H12F15N2Pt(1-) | MND = 4
Pt       10.14730192724053   -4.82327912997147   11.07587737360040
N         8.45496136081043   -4.32938299801091   12.21678402337961
N         9.49586808164025   -2.33436439518192   12.39651676579508
H        10.26115448139006   -2.86239723811607   11.93143939268378
F        11.07871123596603   -7.81982248776880   11.38368837913255
F        12.10452228278667   -9.26221186968314   13.42883513430113
F        12.52255417003072   -8.08496548052659   15.86531799070946
F        11.88677983024492   -5.44243923133790   16.20897256706229
F        10.87179117579656   -4.01087234128855   14.16942387783565
F        10.69909143793448   -6.56029274742152    8.43865186058934
F        12.99007978686903   -7.01128532391291    7.04309337418846
F        15.33305645556598   -5.86861820479324    7.85725269275692
F        15.36438201707244   -4.26837991046732   10.07548113515276
F        13.06073879448136   -3.83262870934809   11.46616982637689
F         7.54075420089083   -5.26517189074232    9.11235680683748
F         6.66836664518793   -3.90219752725181    6.96376907139814
F         7.99751014815528   -1.67170847003767    6.10476835923647
F        10.22627520951706   -0.82625495684786    7.46038777430985
F        11.09889219782728   -2.20305326225214    9.62150998231467
C         8.43940180438694   -3.11188666033296   12.64844691356737
H         7.61258056453890   -2.68328913193939   13.20783446199252
C         7.46575344924695   -5.27746149304756   12.44317328024517
C         6.35688944573235   -5.09568888391471   13.27169371942671
H         6.20339746474302   -4.16538085314288   13.79886137721728
C         5.44240149780808   -6.11917218972524   13.43546043429278
H         4.58705569808731   -5.96796725458463   14.07940550067258
C         5.61383051581197   -7.33046388545912   12.78671647635212
H         4.89183455597198   -8.12255272498676   12.92237378204166
C         6.71577756695245   -7.51975044407955   11.96693385350191
H         6.85838004329114   -8.46063419843243   11.45756604172973
C         7.63494016702100   -6.50618414859581   11.79846343707227
H         8.49892033941905   -6.63540112073717   11.14945324433005
C         9.74983876321376   -1.02827618279748   12.76825276270820
C         8.79311064594294   -0.19444018413161   13.34539784139179
H         7.78975668542952   -0.54951215073138   13.52528489722630
C         9.12455655512030    1.10362931798663   13.68754273263781
H         8.37583019301799    1.74118644129663   14.13586538747681
C        10.40004159071417    1.58944710801228   13.45809289951409
H        10.64991951758165    2.60483893714972   13.72778653275199
C        11.35180141154266    0.76482125610891   12.87758718708709
H        12.34836699855424    1.13681133726047   12.69277996117036
C        11.03411518272165   -0.53262215590701   12.53379518647333
H        11.77128509296121   -1.17897682920401   12.08305700114560
C        10.94064084766521   -5.85101547235764   12.67762683526638
C        11.27833403921545   -7.20053975390648   12.56807226098240
C        11.80359246853783   -7.96026571984835   13.60386072326143
C        12.01800203966424   -7.36871765805093   14.84172978685556
C        11.69739848619831   -6.02959894935061   15.00952730958545
C        11.17665820530924   -5.31272653483606   13.94062258200467
C        11.81054479695928   -5.19912949131710   10.00984866566023
C        11.84548015378232   -5.99839971276829    8.86930694775767
C        13.00477483199652   -6.23329914073663    8.14239969213257
C        14.19862605449091   -5.65137356853110    8.55050511375144
C        14.21070292421403   -4.83916185464854    9.67739654178747
C        13.02951020783624   -4.63184125615489   10.37408810902457
C         9.37504689584476   -3.80649521780759    9.45065943631222
C         8.24671837570598   -4.18391564344827    8.72359076039230
C         7.77565022062708   -3.49208414800882    7.61425582073961
C         8.44363430317380   -2.35752653963037    7.17519730839997
C         9.57172498098418   -1.93351206800155    7.86397395818063
C        10.00088297856311   -2.65854500179462    8.96571684820709

