96
CSD_code = LAZGEY | q = 0 | S = 0 | Stoichiometry = C41H49N5Zn | MND = 5
Zn        6.67507141408319    5.15691495841420   10.92449215921999
N         5.79488322051794    6.14475334331971    9.44943614872192
N         6.91441772033314    6.97613355086341   11.67284245766501
N         7.14988567383961    4.19061957124082   12.59374530386327
N         6.03678910499635    3.36084047647853   10.36421680881648
N         8.60778221208568    4.91428123340504    9.97220297125583
C         5.34580108817914    5.88873105104139    8.20369345985501
C         5.33041759582631    7.11632282138631    7.44803503120474
C         5.78955633025241    8.10586470836951    8.28131418732295
C         6.02813861274902    7.47836550409603    9.55482435086397
C         6.45439701468447    7.93166421082550   10.82467937660197
C         6.49004649498644    9.21154189187919   11.48317934804946
C         7.03506506703017    8.98823018294935   12.72313767672655
C         7.30327653195313    7.57521091761088   12.81720877878582
C         7.87890055624424    6.98004984988421   13.94794794711776
C         7.99995991112003    5.67744153661605   14.37402989353473
C         7.58309420485088    4.44887875004968   13.84494881608131
C         7.54996000629415    3.23125434665974   14.61518156461460
C         7.07243057266995    2.24583434879194   13.78676405865850
C         6.87733019021336    2.86376350392618   12.50176913554370
C         6.46318256260275    2.40628102354531   11.22943044152952
C         6.41576788600688    1.12072718773346   10.58438404977295
C         5.89579544094682    1.34013932468601    9.33287988371597
C         5.65128460569306    2.75607089768901    9.22146176574258
C         5.09708607317149    3.35084643911716    8.07981404429071
C         4.96278041214650    4.65467109865603    7.66072885384201
C         4.96300640579710    7.23855733594932    6.00496593317293
C         6.13543901157648    6.85105223233545    5.10002753423393
C         6.15813476940456    9.48690685786944    7.84695616576774
C         7.66351204045155    9.71458348831017    8.00347539674402
C         5.89434240731349   10.50364487584364   11.02863661646662
C         4.38333055908571   10.36391410322836   10.83079627532624
C         7.30422441286387    9.99920226530759   13.79061850704290
C         8.70238453927736   10.60293582887966   13.63326928383813
C         7.88758062682293    3.11720362008348   16.06598037099147
C         6.70928277229749    3.54853440022371   16.94256615613152
C         6.65597359825739    0.88120460574160   14.23019420229701
C         5.15210121206905    0.68393369979337   14.02763665033872
C         6.99347295378875   -0.17115816879090   11.06191261668716
C         8.50095144379114   -0.03591366374884   11.28933030354381
C         5.61929278380070    0.32147515561781    8.27479365477441
C         4.20627766354352   -0.24876059809821    8.42303078801866
C         8.70729345167348    4.48525494901007    8.72202314743250
C         9.91146011482761    4.10827605065538    8.15009903825440
C        11.06304611526851    4.18248212946519    8.91729341168615
C        10.95934293882439    4.63824638589574   10.22193769406753
C         9.70995047104084    4.99237515096401   10.70462400403323
H         8.25799421964609    7.70582938166626   14.65841970927507
H         8.45536212426091    5.58101881588823   15.35335617809163
H         4.73153387060714    2.62480265806592    7.36256946485113
H         4.51008942361298    4.75006661744365    6.68017408397022
H         4.66089733856103    8.26434871223063    5.78424745998102
H         4.10736801973064    6.59644703393354    5.78305462384880
H         5.85624740568959    6.94122907036555    4.05210354722106
H         6.98765319357394    7.50017849380381    5.28890441286745
H         6.43999159038841    5.82456548364404    5.29290449952450
H         5.60170016756268   10.23928812865086    8.40377039752347
H         5.89602891212937    9.60957292580717    6.79449888947192
H         7.93104835078294   10.72670610034524    7.70476361303529
H         7.97383190915884    9.55659267641206    9.03357126106412
H         8.21352407028811    9.01386212956053    7.37789899078608
H         6.36732771492081   10.85071670623985   10.11120273049594
H         6.08092300155972   11.26686348570720   11.78643109399748
H         3.95596614990483   11.29773971790750   10.46950786855324
H         4.15732670675178    9.57356500873261   10.11932310335516
H         3.90807453040295   10.10984928943595   11.77601281354975
H         7.21486346055317    9.53693179842251   14.77533493735655
H         6.56199744021280   10.79877820461245   13.74260967831051
H         8.89387416808866   11.33438642332439   14.41588786876279
H         9.46088298843742    9.82513642034772   13.69036329398993
H         8.79306779245464   11.09521762913865   12.66741704033808
H         8.75586352439968    3.73956565643853   16.29644405927082
H         8.15809676581654    2.08632588950520   16.30450755038002
H         6.96949456273226    3.47639270529932   17.99680935205470
H         6.42936632969980    4.57566938503986   16.71989210760054
H         5.84729453501912    2.91296690669908   16.75345901242875
H         6.88051856650665    0.77107849272103   15.29270769474141
H         7.21397820068280    0.10666869699987   13.70484867080848
H         4.85219219408761   -0.31590608288158   14.33689779728418
H         4.59896973312576    1.40911176778540   14.62092948130462
H         4.87909013556265    0.82824032914237   12.98524827220944
H         6.81858155212592   -0.94026723675306   10.30729375747272
H         6.50181377203548   -0.50728417774215   11.97331798699758
H         8.91858248329078   -0.97049364526289   11.65970463404143
H         8.99665578604819    0.21681160365526   10.35353261879516
H         8.71451076345660    0.75395807821835   12.00557407684121
H         6.34346317405555   -0.49350281249407    8.34261376275321
H         5.72995167095017    0.76848800070655    7.28480978770049
H         4.00579878485811   -0.98338806220232    7.64558897392272
H         4.09488526360902   -0.72867857687275    9.39276687089465
H         3.46750382415717    0.54626807623659    8.35109750627754
H         7.78334361195311    4.44229338864014    8.16398026587628
H         9.94417919789923    3.76228489873845    7.12873435463797
H        12.01959789698336    3.89230832152252    8.50757733742646
H        11.82951164308067    4.71478929547635   10.85498846313406
H         9.57598068331752    5.35122275592741   11.71473178070672

