92
CSD_code = LAZHOK | q = 0 | S = 0 | Stoichiometry = C34H49N4OPSi2W | MND = 7
W         3.96200948724722    4.64947653988211   10.55512445611329
P         3.93464462107863    4.24941220911547   13.06902194971396
Si        0.62918217908190    4.26919745764050    9.68768332721302
Si        5.85864650797010    1.82309654390688    9.86696938668764
N         5.67524097255732    5.20832109731017   10.76082653893409
O         3.15564277738522    6.31500647623224    9.87536423917987
N         2.07912745622260    3.78309546781672   10.48726524044301
N         4.05228387570935    4.44231019419773    8.41474909740409
C         9.02269756117173    6.63740272869118   10.41631062301139
H         9.56031128272390    7.30785605833257    9.75922276246848
C         6.77755610911359    2.96154277886072    8.63537298520179
H         6.39487689569854    2.88388653462223    7.62222736651368
H         7.82792913368424    2.69360075084908    8.60483403473391
H         6.71517324233093    3.99850433317723    8.94700236496523
N         4.46201193946195    2.61153865341197   10.50805976423182
C         3.78306722954260    9.23014331098616   13.61141714275558
H         3.36781322485964    9.67541974574466   14.50540952791046
C        -0.59114289599873    5.24278961767408   10.82066256621374
H        -0.61748987180238    4.85858557067065   11.83746465681452
H        -1.59876204081109    5.17778563407638   10.42102343007391
H        -0.33625522999161    6.29747732619434   10.87283423498893
C         4.80738665132582    5.53613163312590   14.05868816867443
H         4.16717852084341    6.40819108899626   14.17120864710284
H         5.71311047696426    5.85025048264927   13.54492753837769
H         5.06159225195087    5.14818146106286   15.04433379714046
C         1.07001088631959    1.86929034541733   11.66591388258363
H         0.11671802076287    2.37349592305783   11.71441557652573
C         2.41979584006582   -0.06037702385346   12.10405656440224
H         2.52878899698680   -1.06450171665721   12.48695113010350
C         3.60411462915378    3.19655232329630    6.42031402689982
H         3.17135278913171    2.31563084582869    5.97290170810505
C         4.64989352495111    5.37191719736922    7.65779022704248
H         5.04179709865913    6.23135424936484    8.19247282196303
C         2.96106720587037    6.44625552661612   11.19617660945065
C         3.63313245619102    7.58315848525942   11.84752165925795
C         3.12075917236876    8.18096956372707   13.00255479356863
H         2.18806603658073    7.82168398857211   13.41957379467412
C         7.17167654065513    1.31258700801084   11.17830932981749
H         7.66857170746026    2.18691659796522   11.58849823655436
H         7.93634166412402    0.69644783525358   10.71471480748729
H         6.75422486460374    0.74341753452915   12.00404312043988
C         7.65184254030689    4.91183649178356   12.08544340004485
H         7.10888180516431    4.22640424246446   12.72291222819056
C         2.14791932857949    2.52928173467449   11.08133972058081
C        -0.32555882219991    2.74690992728371    9.00562976691601
H        -0.68034482618245    2.93149866276647    7.99702957001717
H        -1.19344229056922    2.51860453182675    9.61379194376856
H         0.29239911566778    1.85457703556670    8.98359166397069
C         4.75665453989520    5.27305946063686    6.28408357048581
H         5.24564839565366    6.05380624137703    5.72314269707372
C         8.97411567936293    5.20432853947143   12.32937163320596
H         9.47407077736124    4.74842733163956   13.17378912924268
C         4.80803042200135    8.11284038123715   11.30478812778626
H         5.18712791795993    7.68166796466917   10.38764140229152
C         9.67348574854836    6.07096496583092   11.50213211102046
H        10.71103759963710    6.29655844843148   11.69724441374670
C         2.32287922515607    4.23521478623617   13.96606237543927
H         2.49458129645861    4.18898524122547   15.04078198676500
H         1.73985867271252    3.37035949419223   13.65399354312272
H         1.76650023156071    5.13957059111668   13.72811516476434
C         3.41506091622626    1.87886730837079   11.04625107420869
C         4.68043030682332    2.73131468957274   13.80949515748150
H         4.78246447589675    2.84910073037689   14.88794228803991
H         5.65657696557974    2.55348539259564   13.36382596303698
H         4.04757616717772    1.87180857597332   13.59629751560960
C         1.20325046809602    0.58978422182054   12.18346037411490
H         0.35121648610315    0.10454092601410   12.63659077197194
C         7.69915998144741    6.35894600442591   10.16233285491535
H         7.20668107738925    6.80085232357842    9.30558079239143
C         3.51281604117907    0.57985956211280   11.53820378615919
H         4.46503586794550    0.07539993045468   11.49264616992182
C         5.46569537160084    9.15574850480344   11.91973095040233
H         6.37978499301254    9.53998446138323   11.48929878557095
C         4.97099690684970    9.72611315030250   13.08958173515885
C         3.53255673064225    3.37826052998834    7.79029933513184
H         3.03627382973335    2.64533295026199    8.41546980300609
C         5.36402922195596    0.24667560239576    8.87641669511827
H         5.79816680726632   -0.64488484264343    9.31558899866232
H         5.70954518472368    0.29810207918090    7.84868861372646
H         4.28796206097236    0.10399072262215    8.85865111940962
C         4.22902178193592    4.15919282351452    5.64230270033119
H         4.29987345992934    4.05052452144240    4.57103420172931
C         6.95785348070577    5.48713633924161   10.99510054912205
C         0.91533848470440    5.35489869345952    8.13315261926591
H         1.65755631520565    6.12672543268186    8.30705442495404
H        -0.01634581979951    5.84701682042274    7.87160225578748
H         1.22774587819961    4.77277198445425    7.27028494865371
C         5.68527674180773   10.87042840162890   13.74360504795792
H         5.42715409274743   11.80774396729112   13.24884822337584
H         6.76330015840403   10.74150723978389   13.67295401164074
H         5.40785783996402   10.95462663223752   14.79185034330701
H         1.89505657630407    6.35364586842647   11.49126130642859

