84
CSD_code = LAZHEB | q = 1 | S = 0 | Stoichiometry = C38H37N4O3PRe(1+) | MND = 6
Re        0.04887148282253    1.89172766903965   18.43798063444249
P         2.47017765660034    2.20648598343828   18.05795533816051
O        -0.56139569585407    1.44243795668824   16.15374625347896
O         0.29014269843365    0.26543245623711   18.64557501111866
O        -0.31673819019399    3.54729546960691   17.94187432416474
N        -2.47385377176656    0.54769787387273   15.21837005264685
N        -3.72089908110679    0.19524568055594   15.68354638807918
N        -2.11544971674987    1.56994959433766   18.58233717568743
N         0.07440037798388    2.37609479199071   20.40338581040356
H         0.95427076725285    2.58178276782833   20.87190347684907
C        -1.94173161747457    0.16134600826480   13.96954869546202
C        -1.17009376650750    1.07845806926896   13.26659246832214
H        -1.01100889629663    2.06493292839392   13.67078170536881
C        -0.59898100632466    0.70624140530819   12.06304165106742
H         0.00171907576238    1.41727812352065   11.51711976037641
C        -0.80345466000688   -0.56678606631513   11.55675081397104
H        -0.36259881992007   -0.85103916222999   10.61412322741279
C        -1.56774746570066   -1.47933064081227   12.26534048616408
H        -1.71714797383454   -2.47612458392132   11.88065186321863
C        -2.13252029370997   -1.12504879757709   13.47737415259085
H        -2.69949116365349   -1.84750383379664   14.04407814313894
C        -1.74769903412379    1.07945142523437   16.24694137332127
C        -2.62080010753975    1.10416707848990   17.38908284983969
C        -3.82477215634493    0.54453860377772   16.98970711542872
C        -5.06471471015630    0.25113453530772   17.75400981490203
H        -5.68660995415421    1.14189854884565   17.85334566583031
H        -4.81004678608975   -0.10430020090607   18.75059302296102
H        -5.64845541220033   -0.51856352793457   17.25645708201702
C        -4.79600652325423   -0.15003407817675   14.79304174266260
H        -5.67361416568180    0.46166578951034   15.00607381246763
H        -5.06510176845614   -1.20460573342407   14.88840066654058
H        -4.48137109162628    0.03712448577389   13.76779714391779
C        -2.81949881058025    1.82442423825821   19.63582352600296
H        -3.90134385432966    1.71468864291094   19.58197091681589
C        -2.33428925705327    2.24764660826560   20.90493044013911
C        -0.96623349611104    2.47027199663948   21.25195129020128
C        -0.69160095991706    2.84794906305851   22.58796910683055
H         0.34195704518181    3.00870291001531   22.86134053964074
C        -1.67612115554935    3.01558486857891   23.52417297219246
H        -1.41673026747366    3.30517046037385   24.53085809738437
C        -3.01512534095630    2.81429534210473   23.17948549879352
H        -3.79249700664909    2.94941873323699   23.91376549853909
C        -3.32044848908833    2.43884322895796   21.90022353423074
H        -4.35368964874524    2.27466790019487   21.62956753108455
C         3.28020612086233    3.59840897334184   18.90332982615343
C         2.51349193695323    4.62611998859743   19.44372180128914
H         1.43560882482236    4.58058923406229   19.36955126255659
C         3.12821384013342    5.69399564812398   20.07367168697754
H         2.53093500698244    6.49009320109996   20.49238930008369
C         4.50963295500827    5.73988825460784   20.16932736676527
H         4.98868581643497    6.57212692739549   20.66163399597642
C         5.27705917725518    4.71551085466243   19.63666914190403
H         6.35293030020114    4.75014425035718   19.71480641326587
C         4.66825413504326    3.64555092824392   19.00635722765791
H         5.26460086122279    2.84285742802496   18.59724939034453
C         2.80829563927459    2.42566351621970   16.29262466563346
C         3.44758620269221    3.54177312698524   15.76562927937885
H         3.80953272442026    4.32203965404438   16.42087620563359
C         3.62262610813810    3.64599349814055   14.39572687764456
H         4.12030027558196    4.51108764504138   13.98398838954536
C         3.15891301668696    2.64696625700556   13.55583126816973
H         3.29612132015255    2.73749563732203   12.48879356901385
C         2.52127195053913    1.53216438416369   14.08142265442424
H         2.15951522608741    0.75422881422412   13.42575429715649
C         2.34458969954693    1.41890108235372   15.44645964370055
H         1.83744035919297    0.56587156942113   15.87647703785080
C         3.46704393761464    0.76745892583650   18.53666802510863
C         3.12301278734213    0.08755815295743   19.70195020238375
H         2.23708472313785    0.38797590544103   20.24592570981027
C         3.88785666934071   -0.98428888117389   20.12401358569604
H         3.61842698501218   -1.51612313105802   21.02360832338495
C         4.99443440849862   -1.38088112373360   19.38898629603571
H         5.58929249807208   -2.21893810506193   19.71877705263929
C         5.33283733482212   -0.71025320979316   18.22501803782431
H         6.18951089411624   -1.02518460525569   17.64831404694700
C         4.57318515151374    0.36369861788876   17.79499482446507
H         4.83203332285021    0.87870891742322   16.87989354332098
C        -0.68685066451441    4.69110451682123   17.29669555187275
H        -1.71839178890114    4.56900924292769   16.92025647989475
H        -0.69232773308956    5.53222630080169   18.01096713898028
C         0.24705908654588    5.00754475469478   16.12560559550197
H         1.24528234744105    5.23600203516221   16.49344619755558
H        -0.13103525206438    5.85923819061844   15.56762305508385
H         0.31207680601363    4.14175800892163   15.46867835791062

