77
CSD_code = LAZHIE | q = 0 | S = 0 | Stoichiometry = C30H37N5O2Si2W | MND = 6
W         2.32670109189995    1.14416298846349    9.79896507740464
Si        4.23329286003440    2.09228928051754    7.24187085268648
Si        0.89914425653222    2.83638085822944   12.22595901878034
N         3.75920977228680    0.68139387074424   10.81055864941418
O         0.99435280775091   -0.03719121805236   10.65317987160041
O         0.97058635435784    1.01901538095920    8.38862164865995
N         2.70782131781409   -0.85221369083364    8.65433076643783
N         3.15055554363768    2.50402056189388    8.52406064088181
C         0.43300093718687   -0.23555718654076    8.38041454332062
N        -1.36854364127394   -2.46039950467675    9.39278266850718
C         3.73435270437283   -1.71275049161350    8.59266927392731
H         4.66611152492341   -1.37190402944611    9.02353202036356
C         2.12957111169754    3.44293857052023    8.41219593058626
C        -0.35268537013829   -1.95777345082372   10.08545731939830
C         3.62427402043968   -2.96971192795105    8.03387737972637
H         4.47938800770430   -3.62583317038462    8.01150872771973
N         1.62222186850103    2.80031006855012   10.65297440994683
C         1.31639887577135    3.62194180542839    9.57819826255728
C        -0.04094882303610   -0.49657997188761    9.87385870881612
C         1.52493396736297   -1.24747807650426    8.14777189693569
C         1.33504012318733   -2.49420230341834    7.56270111315826
H         0.36419471202095   -2.75564804212519    7.17196858918820
C         4.40871971535181   -1.37431498693463   11.83087912008514
H         3.45693988574545   -1.79143118653948   11.51705893806757
C         5.65249718129907    1.15666198633206    8.12375904982321
H         5.32763223439338    0.86984976170262    9.12401803961901
H         6.52871734962381    1.78679238272804    8.23096834025240
H         5.96274611914202    0.26979721725227    7.58136422143665
C         0.84685410231346    5.16673249590930    7.30151711172875
H         0.65718638417391    5.75313605219903    6.41455154825081
C         0.08306569508776    5.35776781228765    8.43793665839768
H        -0.70328706919112    6.09798973721883    8.44871427889522
C         2.40210702149016   -3.37102489028103    7.50151067390702
H         2.28810317496038   -4.34539666110326    7.05170816898676
C         0.43067962407865   -2.73012259175037   10.93816778986890
H         1.23395024363328   -2.25424949676093   11.48117924705939
C         3.33817306299270    0.95530693213704    5.96206453381767
H         2.30621947157680    0.80737261380385    6.27908272633801
H         3.80500075534580   -0.02213756436032    5.87318556234635
H         3.31341263828236    1.39225049570535    4.96849866442479
C         1.86001929358631    4.21984535330290    7.29056567398354
H         2.44115731355294    4.06740665497535    6.39546416844003
C         4.66483636368280   -0.02161365025531   11.50313537918132
C         0.31744241620397    4.58941084849580    9.56808261847628
H        -0.28755291475855    4.72478180512487   10.45205363815253
C        -1.64095940455727   -3.74706193707692    9.52803444638120
H        -2.48142036474003   -4.10319652494931    8.94649876890989
C         6.80775915770372   -0.24799343763364   12.62055333374635
H         7.74530306519628    0.19044769033407   12.93459882168525
C        -0.92028046423798   -4.60225094977063   10.34637943362227
H        -1.18428905067702   -5.64551820816379   10.42030133638928
C         6.53671974570538   -1.57481286461285   12.92381818736116
H         7.25473025223351   -2.16887230518317   13.46900019100243
C         5.89964819619160    0.51905184670414   11.92536975180899
H         6.10578733857878    1.55458911768928   11.69172224786688
C         0.14010022604660   -4.07573305163048   11.06894122573253
H         0.72692090232110   -4.70237715065569   11.72481554022159
C         5.32803802052280   -2.12779298144085   12.52492178639697
H         5.10547671093843   -3.15984538445522   12.76331564782748
C        -0.94346916704783    2.27731324706823   12.24401161152026
H        -1.50541532591107    2.69811812125156   11.41405422027452
H        -1.43821694432201    2.57939276906528   13.16219505340778
H        -1.01245319223252    1.19474488111464   12.17591976326862
C         1.95768531349668    1.58407379363491   13.20661998698201
H         1.93073138141502    0.61341431132326   12.70792814225352
H         1.60228048482331    1.45527216265994   14.22401732815403
H         2.99653268824680    1.90144092096508   13.25442015416613
C         5.04862570181791    3.55753275585018    6.30998014350204
H         4.49513928256725    3.85832280176543    5.42632070492441
H         6.04570863787233    3.28125418197483    5.98280861358039
H         5.14195815510794    4.42924640461553    6.95034382371804
C         1.02451431253911    4.55474007420163   13.06450077206316
H         1.96886896111697    5.03799624770968   12.83521617231084
H         0.95759019111825    4.45349338801619   14.14217012807389
H         0.23100149416922    5.22527414811722   12.75297485272333
H        -0.96189338070735    0.10249096552395   10.02448279933472
H        -0.40451701091309   -0.35307647626707    7.67044148926748

