93
CSD_code = LAZKEF | q = 0 | S = 0 | Stoichiometry = C45H37Cl2N3O3P2Ru | MND = 6
Ru       10.52038050555977    1.57604493098378    5.85451314931274
Cl       12.60713090345498    2.07940193237497    4.83418327417672
P        11.60519822537200    2.05814457955284    7.89949984773290
P         9.66011784574242    1.46047941157074    3.66042897128413
Cl        6.63937406972341    4.08760295034832    9.43504106737832
O        10.75738513422326    5.82858249171315    4.51462629368581
N         9.99176085728585    3.58544460731322    5.70173298870047
H        10.51965617643365    4.07246134630172    4.96950423324903
O         9.97400180874210    7.71642002552573    5.17384850707065
O         8.02437338841561    0.34880985370829    6.92138519202132
N        11.27366208979592   -0.22130347229369    5.85418077563252
C         7.88302003374649    1.06654640607845    3.62500541705919
C         8.95116126965997    0.92589318978127    6.56017096935711
C        12.83554087524269    0.80332931609999    8.41329029240722
C        10.43376764192618    0.12761979068335    2.69887756146456
C        10.23956720293762   -1.17861888203526    3.14864969072030
H         9.59086564487225   -1.35415941614443    3.99987792605095
C        10.47295653527105    2.14406558929949    9.32080290246206
C         9.70553520048330    1.01122759678398    9.58883883516491
H         9.82444328825976    0.13219100096135    8.96449649102357
C         8.63634640449025    2.15043909109919   11.40412659962384
H         7.92250123082956    2.15564511030115   12.21405739733740
C        12.63858746707598    3.54468627924267    8.10531120925068
C        12.75236477133031    4.52741048129536    7.13211588995941
H        12.25027775214787    4.41891960279446    6.18386984977937
C        14.95699064054662   -0.22568858837074    7.91693902734424
H        15.83407812436430   -0.29984514106614    7.29003204659608
C         9.27581070994214    4.42474141157167    6.42257237282316
N        10.02940252892535    6.49478834531087    5.25969341633600
C        12.71369701765504   -0.01143633845668    9.53307031043594
H        11.85482757465153    0.07524889332584   10.18224835696094
C        13.97125484016625    0.69360912442977    7.61136341081663
H        14.07492709346513    1.33279409421345    6.74466045724976
C         7.07068474070560    1.85905720890238    4.43516678258486
H         7.52364986009454    2.64457953635137    5.02893545038491
C         8.79713768865854    1.01226000425139   10.62965424880325
H         8.20778100032040    0.13002364668536   10.83206126491914
C        10.91712028092244    3.63636789187905    2.43657838284422
H        11.79454926009671    3.34127994629440    2.99343960249168
C         9.25353158513973    5.84944173449685    6.22793370088013
C         8.60789032720989    3.32082412497657    1.84234276569969
H         7.67798190007878    2.77741976863251    1.92532501515174
C        11.26981008697951    0.36507748820890    1.61530432733929
H        11.43113041792030    1.37607776247658    1.27051004177768
C         8.42982387731376    3.93349748027738    7.46012765282717
H         8.41259507599886    2.86715154844970    7.62859641201777
C        14.12622372053896    4.79142751704026    9.52669283498299
H        14.66555403322907    4.89042419711327   10.45771388810353
C         9.72934601651792    2.91769792913756    2.56469662803740
C        12.00365954608341   -1.10355876973012    5.73919239941488
C        13.34042466991842    3.67819392159646    9.30470105786634
H        13.26449637545366    2.90682857310752   10.06037995152695
C        11.89635741341657   -0.69577435429375    0.98337596960149
H        12.54635958198320   -0.50831207211014    0.14152137279652
C        11.69499845684271   -1.99174864852108    1.42670112282881
H        12.18634031186545   -2.81593779818278    0.93047310927378
C        12.88049166814648   -2.22754387347140    5.61069603092513
H        13.37249902313721   -2.18676375103948    4.63885807013937
H        12.31054728973574   -3.15304906686137    5.68923691344299
H        13.63262444441412   -2.19364906645469    6.40000123205188
C        14.22344640543616    5.77940671562777    8.55758294055750
H        14.83670550907129    6.65036997546582    8.73605107795818
C         5.70635897089168    1.64911660251941    4.47344493637266
H         5.08464938245396    2.26415687362121    5.10672769340542
C         9.37427117369710    3.28759559089161   11.12347751822767
H         9.23222178646031    4.18219643083820   11.71135563841477
C         8.44506230101690    6.66433283716532    7.03565451716637
H         8.47264531592313    7.72692024913974    6.84685208696469
C        10.97712049358238    4.74310577298792    1.61008593013122
H        11.89810389109464    5.29989365783380    1.53550155995320
C         9.85783611138308    5.14422341713950    0.90165387904815
H         9.90082774376634    6.01582587159410    0.26561333395773
C         7.64966814355381    6.15288321984372    8.02113099095225
H         7.03075605831768    6.78545209753499    8.63414961451351
C        10.86288720613745   -2.23276481316933    2.50991774175195
H        10.70272292223253   -3.24459564403021    2.85493542791150
C         8.67777853594230    4.42797608767524    1.01671995012389
H         7.80081010146103    4.73553890179026    0.46537898882910
C        14.82484313543668   -1.04330804407058    9.02870842565439
H        15.59599160883035   -1.76016393290749    9.27105470872502
C         7.30904072181701    0.07733023293333    2.83637676338742
H         7.92558639244204   -0.52552212118229    2.18458925102126
C        13.70531962624154   -0.92953706975993    9.83508409983348
H        13.60356221560148   -1.55484208510912   10.71027056407977
C         7.65455095284336    4.76275169496107    8.21262077662015
C        13.54128780134700    5.64249535948546    7.36211001859251
H        13.61916771569478    6.40235603207196    6.59918948243315
C         5.14048968451225    0.64559316566350    3.70170958557776
H         4.07505607391951    0.47322666362235    3.73625740760016
C        10.28696474422221    3.29089048958917   10.08284843248876
H        10.84531649578301    4.18814946775931    9.85839080179768
C         5.94080804057032   -0.13229686846939    2.88251894000963
H         5.49886923281001   -0.90674532256866    2.27250595665825

