41
CSD_code = LAZKUT | q = 0 | S = 0 | Stoichiometry = C19H15O5PW | MND = 6
W         6.97733714053577    1.99750077423289    1.18236898630910
P         5.31423624757614    2.32340398194920    2.99729797854272
O         9.31005638369659    1.34765731334727    3.18293927611264
O         7.61130350588791    5.07628247488764    1.17301339847780
O         6.41854193613734   -1.09008956017490    1.07246044411618
O         4.71995965219936    2.40622342540731   -0.96256891322890
O         9.03831686909015    1.61580489988233   -1.13332078166864
C         3.57582843103651    2.83852282942455    2.73966691552163
C         3.73343103178981    1.42344464260511    3.13956345902555
C         2.80928085383463    3.54369509071208    1.65514971924446
H         3.35217946466927    4.18824603723093    0.97617759137889
H         1.98399308873293    3.01853471884684    1.19187433865992
C         2.69688363794887    3.95725521450230    3.08156345388132
C         3.20442883567694    0.15051895900927    2.58025854163926
H         2.34223300747276    0.20134783267862    1.93043764120279
H         3.90110375183907   -0.63213265949781    2.31744781804851
C         3.02322230569395    0.47705023490433    4.03963193434930
H         2.03479569012461    0.75104213266137    4.38311792195319
H         3.59691412047642   -0.08715897211521    4.76123034025369
C         1.61935888106107    4.25674892859322    4.05203476880474
H         0.64634379346603    4.52732246067979    3.66809092963049
H         1.58181464083903    3.70068842604836    4.97750201942902
C         2.76410965314062    5.22291943100959    3.84621824165012
H         3.50490450300629    5.31364378846889    4.62756623229048
H         2.56502359552754    6.14656266858031    3.32293841871040
C         5.69049686525222    2.96519917663293    4.65350129250789
C         4.79583650160759    2.90984455311871    5.71869722642706
H         3.83249642080019    2.44083373220902    5.59048482438301
C         5.14460695876742    3.45559626091234    6.93968482914890
H         4.44857815013326    3.41103409193328    7.76478698064386
C         6.38086000762427    4.05953825418664    7.10965809563615
H         6.64677677666031    4.48442869212693    8.06601098549050
C         7.27361944150439    4.11749705596897    6.05252932595684
H         8.23681332087103    4.58844689833263    6.18122961973131
C         6.93067230125541    3.57209462105821    4.82869728785661
H         7.62320628695925    3.61784411451972    3.99646053066479
C         8.44710383485312    1.62048897988273    2.48698358079460
C         7.37046599862421    3.96060396947816    1.19615520634703
C         6.60088322272432    0.03515332167320    1.13387052696263
C         5.52444992615501    2.28604971769119   -0.16241415365516
C         8.28383296474684    1.75701148639059   -0.28679683324114

