37
CSD_code = LAZKAZ | q = 0 | S = 0 | Stoichiometry = C17H13O5PW | MND = 6
W        -0.28827875020182    4.01217338111380    5.17246981809038
P         0.65562090441047    3.67986223940616    7.45411285278947
O        -1.28251415592893    6.87083037089219    6.01027396430434
O        -3.09926313658537    2.88971500947678    6.01425180954374
O         0.74091420872641    1.19846525037576    4.22241537225646
O         2.36936530328688    5.31292108374884    4.12392946497317
O        -1.47104536165268    4.46933714195887    2.31883541867442
C         2.24474802076094    4.31608857943467    8.04526086514710
C         1.07096480567547    5.05960781960002    8.60785169788386
H         0.84344982417595    4.95655568799500    9.66220935288573
H         0.89841310362173    6.05990771771680    8.22532119980642
C         3.51772217039840    4.77103859938882    7.38992896091384
H         3.82957904451795    5.79614523305332    7.54263856327626
H         3.76541041446474    4.38076913570542    6.41168936477798
C         3.53090707333392    3.83237369351169    8.54582307447641
C         4.24123792960197    3.71164180818299    9.83980980753286
H         5.18114348578228    4.23167747855333    9.95431692091547
H         3.66547244416339    3.65747249985194   10.75254913383229
C         4.18181645284522    2.54499275925978    8.87996307365395
H         3.55677962601694    1.70104390588498    9.13390819139815
H         5.08219237591428    2.27615905354893    8.34760315665757
C         0.32827431332672    2.23324805924745    8.50303534504904
C         0.78207511133184    2.10345689483213    9.81269356529233
H         1.35603315827198    2.89289235705755   10.27261314061296
C         0.50277230911099    0.95635647222652   10.53130973212737
H         0.85797968425820    0.86172613858238   11.54721942327097
C        -0.22726077284463   -0.07134012872068    9.95515416412285
H        -0.44157417031193   -0.96484093094990   10.52203649450782
C        -0.67845603833533    0.05000611213576    8.65179738835659
H        -1.24594876480745   -0.74844440600248    8.19765103165007
C        -0.40128561318568    1.19605135187838    7.92890863728108
H        -0.75012408472907    1.29340920696668    6.90776333903631
C        -0.92334190378361    5.82727171814966    5.71967857298608
C        -2.05759477764654    3.26840234876087    5.74112961714003
C         0.36610422778499    2.21003939539774    4.59572122057650
C         1.42939511851417    4.81993704589361    4.54365710588555
C        -1.03768358028065    4.29854991588291    3.36216915831420

