69
CSD_code = LAZQAH | q = 0 | S = 0 | Stoichiometry = C29H33N3O3Zn | MND = 5
Zn        4.88365547307288    4.67134206476789    9.66632936190247
O         4.12672476798428    4.67061906799510   11.43488238579137
C         3.14289534572907    5.48382606897755   11.56269520353945
C         2.36100042401969    5.55875371438526   12.75743534641405
C         1.32882833037681    6.46256776756509   12.81781992636427
H         0.74597511831844    6.51211550663608   13.71919230034093
C         0.99207645473800    7.33462138858534   11.76763688259572
C         1.72811521422044    7.25923183267877   10.60975189225154
H         1.49994156724017    7.92219268175207    9.78961152242090
C         2.78908701651149    6.35385476658525   10.47687803395284
N         3.57131051258469    6.20550762956101    9.36663208263098
C         3.35110969057634    6.79328025883795    8.23655198397456
H         2.48467134758150    7.44747437213106    8.12263391282617
C         4.11187078398249    6.62530313604793    7.03365258467418
C         3.54351920906557    7.15174792298100    5.86086051653315
H         2.60038449959982    7.67415639519370    5.93577970986066
C         4.12920322621962    6.99166099004610    4.62744953777888
H         3.65455804332890    7.39294396678829    3.74504851754037
C         5.32183748069477    6.28342238138150    4.51829081902086
H         5.76634084562682    6.11469182486316    3.54947069067588
C         5.92968620371984    5.79248115540931    5.65061683438110
H         6.83563823504242    5.21500837926114    5.55161577904130
C         5.36587807889305    5.96921139102048    6.92357053790646
N         5.97198247440199    5.49379970027270    8.05818651305008
C         7.21537730033775    5.19976964800518    8.14237098813047
H         7.93468544501012    5.37511842555891    7.34188935201296
C         7.71472806453118    4.57858806039007    9.34605475447962
C         9.04924364472678    4.18565348981166    9.47507067029154
H         9.74617805272852    4.36957984215561    8.67175402563618
C         9.44942835914990    3.54977167737430   10.63597633080678
H        10.47316350535099    3.22944340007643   10.75988544061311
C         8.51124674253567    3.32579584548287   11.63343105176321
H         8.78215083168243    2.82856647899149   12.55078167829595
C         7.20563167765908    3.75077625474830   11.42556391921746
H         6.43469420718282    3.59754547622016   12.16647382848299
N         6.82464923104118    4.36239099539138   10.32122607489236
C         2.69988484886075    4.63684804748917   13.92129110488066
C         2.59488106762699    3.17913923246006   13.45167855070696
H         1.58058878224133    2.96409315790988   13.12060868585504
H         3.27607277870605    2.99484791116073   12.62692451356251
H         2.84305580666101    2.50320947948793   14.26757363712743
C         1.76404277259248    4.81577816325854   15.12083852571727
H         1.82172712400587    5.82532956177619   15.52200593829420
H         0.73338040021864    4.59358984383520   14.85382474649656
H         2.06087434587366    4.12634335021299   15.90876458127158
C         4.13168717477331    4.93612222412347   14.38649190616952
H         4.20209235405182    5.95874352967236   14.75296110371719
H         4.41578713819770    4.25846706795159   15.18910980814343
H         4.82535674211323    4.81560257637480   13.56090827251282
C        -0.13981643838550    8.34723577815512   11.87744823630052
C        -0.86716000494894    8.28606299543623   13.22339918602257
H        -0.19092931294373    8.50717765077761   14.04582994430688
H        -1.66351146385781    9.02779832083768   13.23704502489653
H        -1.31768759427778    7.30911864183298   13.38148572477916
C         0.43722387225683    9.76106270170194   11.71409273775307
H         1.18087180702607    9.95383400067450   12.48451236513538
H         0.91252201292713    9.88628313765039   10.74511874817514
H        -0.35389216014856   10.50275609965412   11.80352838428691
C        -1.16904870671911    8.07550758434216   10.77078569892320
H        -0.72872870950783    8.18133507787822    9.78330750048234
H        -1.55985090371935    7.06443069942729   10.86209472350891
H        -1.99850739603304    8.77542208100376   10.84887651533096
O         4.61295323435634    3.11672997818008    8.73954613058314
C         3.61318856768065    2.48492959338030    8.23292341691494
C         2.22922659325954    2.87003761583101    8.76957465750843
H         1.50235421364287    2.10811958516829    8.50259226523483
H         2.27092511663234    2.98841082824032    9.85033089554873
H         1.93223643212454    3.81824478423757    8.32250764139654
O         3.73223209923289    1.63397474193402    7.37304783834814

