109
CSD_code = LAZQEJ | q = 0 | S = 0 | Stoichiometry = C37H66Cl2P2RuS | MND = 5
S        -7.02659131007115    9.71391351792221    3.73684231812413
Ru       -3.95463043414992    8.33651416567121    4.15209873869159
Cl       -4.18775655690882    7.14399749181421    6.15731913445246
Cl       -3.07766307220199    9.27397512091133    2.18848418118986
P        -4.49163991267374    6.31688420248772    3.05514473945315
P        -3.01446079792571   10.12998226412112    5.38607132143050
C        -5.61793386495578    9.08441270429169    3.94683450721827
C        -2.95709603399146    5.25965757990678    3.18078884727433
H        -2.89485912570230    4.60686552991317    2.30145453751351
C        -1.79378226280035    6.25674007354394    3.15183956636545
H        -1.82124145378577    6.84478877748409    2.22813446996558
H        -1.92415267096912    6.95459630960901    4.00817707566283
C        -0.44394215490635    5.56252660491815    3.27361821180296
H        -0.29641970893007    4.92108407268535    2.40041135454603
H         0.35740890697078    6.30575250435403    3.27405670259504
C        -0.38923013704102    4.71385606664525    4.53922705435791
H        -0.49155740131000    5.35363500659207    5.41958908392075
H         0.57434690779969    4.20439247647513    4.60699269420115
C        -1.52364372245396    3.69563049882180    4.52690932760307
H        -1.48928599915612    3.08780185545490    5.43319227855343
H        -1.40063278152907    3.02675744662179    3.67042694938662
C        -2.87972832025844    4.39449729689280    4.43955664940032
H        -3.02292489506997    5.01610856337136    5.32752566506103
H        -3.66473375268169    3.63619452227022    4.42423494020947
C        -5.84404664544991    5.29593768876730    3.81409852860526
H        -5.40252086701709    4.97669273116744    4.76782968206439
C        -7.06856783106715    6.13820932894488    4.16921859231470
H        -7.56707439039167    6.49576729114338    3.26640165395726
H        -6.74834718454608    7.00914452162130    4.74902015646665
C        -8.04043216503183    5.30431428415246    4.99994038526017
H        -7.55983409593995    5.03106063838710    5.94175167417489
H        -8.92454946725741    5.89932594691618    5.23561075179338
C        -8.44832676943310    4.03874939838573    4.25101902532330
H        -9.11757904648262    3.43932170268030    4.87127864757628
H        -8.99162793447511    4.31378285836765    3.34365559872694
C        -7.21764673925109    3.21947137292973    3.87270638466052
H        -7.51800323228368    2.32835093275626    3.31670137363231
H        -6.70524991165164    2.89194675138116    4.78025199178585
C        -6.26735492409727    4.06190530191886    3.02370643553441
H        -6.79629581089147    4.37108163932963    2.12091454095257
H        -5.39771433537039    3.46980222808855    2.72889500461462
C        -4.70117179714110    6.50411439114890    1.21515357655737
H        -3.82843026167927    7.12299112802361    0.95374225243995
C        -5.94334357191047    7.34577627053065    0.92325201024630
H        -6.84620462314020    6.76193371773173    1.11646457304146
H        -5.94901852810398    8.21947920972871    1.58217408593891
C        -5.93440907498424    7.80179449262019   -0.53236805166796
H        -6.83028111253282    8.38982703188993   -0.74025560429498
H        -5.06632319981614    8.44286998843817   -0.69711135102667
C        -5.86906076104012    6.59805579774224   -1.46725947142697
H        -6.77348508636809    5.99576004667049   -1.34861855146734
H        -5.82625403486488    6.93365349722192   -2.50520735802446
C        -4.64700235480937    5.74189429816117   -1.14891443797388
H        -3.74098344642163    6.32675508552277   -1.32278629710663
H        -4.61796028266979    4.87248959088844   -1.80999002473145
C        -4.68007197075380    5.27572947862098    0.30722068145753
H        -3.80686648647395    4.64963601842907    0.49956712693504
H        -5.57093366571758    4.66698789183620    0.45711802190771
C        -2.89721481355053   11.73632239062445    4.44849916512606
H        -2.48019643541123   11.40716812601059    3.48498309409761
C        -4.28949589770209   12.29101694955517    4.15104336344203
H        -4.92525910083157   11.48464299364797    3.77530580725440
H        -4.73915383307956   12.69187295877581    5.06189675603466
C        -4.19522776466335   13.40031267396422    3.10772803864427
H        -3.80322149637957   12.98304179295885    2.17814983732851
H        -5.19051950130225   13.79940707677109    2.90291139736745
C        -3.27494344548599   14.51352959735880    3.59870659127918
H        -3.18466036587679   15.28799586681627    2.83454654770255
H        -3.70609971348134   14.97448402246966    4.49112973974745
C        -1.89616388649367   13.95395583634350    3.93512173672258
H        -1.24928112928843   14.75285219678696    4.30531871582263
H        -1.44133339732468   13.54681263445786    3.02911911232161
C        -2.00181569107894   12.85106030638280    4.98944745091265
H        -2.42411148976460   13.27743535785569    5.89896536561899
H        -1.00086106580379   12.48506992826115    5.22124191237346
C        -3.83117466271495   10.38822351326804    7.04095601415498
H        -3.54724526967327    9.48441189373052    7.59804163681514
C        -3.38576666422628   11.60935215076495    7.84082649633356
H        -2.29706002654713   11.66259695772753    7.90593984376869
H        -3.74901939509831   12.51741286810176    7.35709696393011
C        -3.98028999138115   11.54029449957673    9.24685466005091
H        -3.61524398158311   10.64375133624355    9.75338113490366
H        -3.65563881021114   12.40786907332769    9.82615672891166
C        -5.50374998470475   11.49918061589715    9.17697187353092
H        -5.87003904852018   12.42513250460855    8.72679070203815
H        -5.92050408377855   11.43032605248804   10.18373890334644
C        -5.96675496049928   10.31164366941948    8.33856235707368
H        -5.66382729728762    9.38111558738547    8.82337230226938
H        -7.05559271793135   10.30994166330998    8.26257843318413
C        -5.35713987908157   10.36775825866123    6.94040859652132
H        -5.72094809288611   11.25426027076178    6.41893349291052
H        -5.67298073122470    9.48799669761231    6.37141145711776
C        -1.23586527512531    9.81864522396938    5.85780659288720
H        -0.91210236460681   10.67443991749504    6.46540304289534
C        -0.35774554033838    9.72929188167079    4.60628850393827
H        -0.69186213863624    8.89518968400085    3.98126478896144
H        -0.44638987249234   10.63486704857133    4.00442693067262
C         1.10562135890970    9.52576031595270    4.98994212857406
H         1.71353835624500    9.45177893023612    4.08563334489638
H         1.45355372673606   10.39538974253782    5.55427502836423
C         1.27853490448503    8.27200339895037    5.84048065132747
H         1.00651997958109    7.39285567517621    5.25284779263687
H         2.32416017217783    8.16258889521639    6.13612638473060
C         0.39207568882890    8.34745854740633    7.07885950100431
H         0.71477186856289    9.18334159896239    7.70536421789615
H         0.49278525546755    7.43277787215392    7.66733171511707
C        -1.07043052212728    8.54648804391320    6.69073140371702
H        -1.67621787665392    8.59490325972454    7.59749470917485
H        -1.41519093237104    7.68029443725010    6.11667507735575

