48
CSD_code = LAZRIN | q = 0 | S = 0 | Stoichiometry = C21H22MnNO3 | MND = 8
Mn       13.95914457745062    5.85105383181224   11.36976477318530
O        16.45579584461914    4.48786575868858   12.10765816619780
O        14.91262311681630    8.61588754806272   11.55477597756791
O        13.05251856636871    5.45935646678784   14.13455237197507
N        10.57533043352815    5.08578866046174   11.22412236364622
C        15.47793158020108    5.02212740499910   11.81860877981138
C        14.56918032435983    7.51975522858138   11.50938797970365
C        13.39917957886405    5.64818294362348   13.04973407208215
C        11.75345717233732    5.37098325641936   10.63853985465669
C        12.20536866075159    6.70288872035681   10.37182216234588
C        12.88283408242932    6.89146534577422    9.01546860459068
C        14.07733244230181    5.97299442100101    9.09958948212343
C        13.86350703495049    4.68176640840728    9.55149852397429
C        12.74106165379422    4.36382084081499   10.36426848967746
C        10.13554328603795    3.73079482652925   11.53571776377209
C         8.93028268501140    3.93645135543754   12.45655138811450
C         8.38443623013298    5.29244306159636   12.01883636271134
C         9.65407951885054    6.09537193135007   11.73084000499998
C         9.73363384580076    2.98949477110135   10.25679292588562
C        10.17680256215233    6.77592661784843   12.99817774509999
C        11.89787445948493    6.59574722045648    7.89954921515026
C        11.83883077219451    5.37346050425891    7.24431372803586
C        10.85938714448388    5.12763472160363    6.29715617030738
C         9.92273116891054    6.09892086757380    5.99289435330204
C         9.97594502458647    7.32425505788397    6.63619801132478
C        10.95526225853531    7.56824972117757    7.58026798373216
H        11.51852058456541    7.50851529239646   10.62172543274072
H        13.20814518422719    7.93310099773269    8.91695119430145
H        14.91809365392875    6.17131998148289    8.44055430833067
H        14.57632626621382    3.88984814321515    9.32168669778157
H        12.52555388559765    3.31731439277352   10.54702492193482
H        10.93221145150029    3.18080318393731   12.05132517426401
H         8.20030916212491    3.13667866810832   12.35107231691291
H         9.25003461984021    3.97577769894337   13.49763232896958
H         7.78811986356435    5.18698777306927   11.11186451036951
H         7.77089579722198    5.76356002053281   12.78315300373549
H         9.48099907049910    6.85003738035060   10.95410432216356
H        10.54166549219650    2.98581218692305    9.52974001118308
H         8.87572181560906    3.47383727160953    9.79692412489627
H         9.47249240862640    1.96024581929870   10.49029877411006
H         9.47206555932422    7.53887659751621   13.31924140939145
H        10.29807031485574    6.05174256711188   13.79901244090144
H        11.14163327202991    7.24858523291565   12.82774655913007
H        12.56711523307079    4.60447102791902    7.46172106241717
H        10.83002487106169    4.17129289585492    5.79468730086874
H         9.15829801229736    5.90474589483778    5.25510258058835
H         9.25322657092159    8.09204388952736    6.40012125727328
H        10.99410288576843    8.52761559133610    8.07832301376158

