37
CSD_code = LAZREJ | q = 1 | S = 0 | Stoichiometry = C15H17MnNO3(1+) | MND = 9
Mn        0.84716307591371   11.42317540852376    2.94440245458063
O         0.97840085528569    9.63673172757954    5.28090150067715
O         0.00216623312023    9.21533819403909    1.18913984038235
O         3.71237227507294   11.12884825617188    2.34533904203892
N         2.30453438088115   14.61084042602343    1.81666009894919
C         0.94555841310763   10.30487097707564    4.36240007949190
C         0.35149162193565   10.04989681475116    1.87829468337994
C         2.59634602028888   11.20133595152324    2.56573636264336
C         1.32454551569146   13.87737491532602    2.32682698979035
C         0.31847741431807   13.25487336723361    1.51029528441801
C        -0.83168856852008   12.68970571085663    2.06612470860106
C        -0.98149005304602   12.56045093792893    3.45905362343203
C         0.05113234905408   13.04830364572993    4.28473034658598
C         1.20226503186488   13.61800557983299    3.73870590790394
C         3.30942191476210   15.30638704647176    2.62617423584175
C         4.38544108516168   15.70032192126843    1.61245943572982
C         3.60519229595714   15.85807151476341    0.31124506732641
C         2.57657383211255   14.72926751357912    0.38105440703472
C         2.69934619551908   16.53460927347492    3.30239133304449
C         3.13938513393132   13.42430546311383   -0.18466504686336
H         0.34524418507454   13.39663139929314    0.43852385114241
H        -1.63954876251966   12.38996925485544    1.40629948956436
H        -1.92101125667651   12.23027309196491    3.88536077436710
H        -0.06620957517361   13.03006237914614    5.36378903128638
H         1.93602225305356   14.02993653933790    4.41870161510280
H         3.71736963822451   14.62393702206591    3.38018668486159
H         4.89441468719708   16.61511479305452    1.90390191134333
H         5.13018945885501   14.91061454016493    1.51871114515051
H         3.10693907073220   16.82673539452682    0.27955386973101
H         4.23911811883434   15.77101329947587   -0.56683382524008
H         1.65790738904714   15.00302116635969   -0.14764311213616
H         2.37987606079312   17.25789812793473    2.55683499882052
H         1.83798658091366   16.27715169162521    3.91457436881158
H         3.44242812290854   17.00386292847937    3.94085462671975
H         2.47025181701970   12.58035122882026   -0.02350873820070
H         3.29057938812973   13.53423449374457   -1.25470100847781
H         4.09530780117469   13.18887800388288    0.27492396216437

