67
CSD_code = LAZXOA | q = 0 | S = 0 | Stoichiometry = C22H38NiO2S4 | MND = 4
Ni        2.34240314873981   12.45945913984086   24.88783223241802
S         0.59175435547689   13.14182050699955   26.06252145128040
S         3.24184808440181   14.19393116249053   25.95006665911100
S         4.10068350611733   11.75969195794576   23.72529318670822
S         1.45069759405450   10.70320602898720   23.84934012267810
O         1.57491629085316   14.95178138373226   27.77621278155341
O         3.21085438710434    9.74238187411861   22.21278988295914
C         2.97927728482974   10.63446520435948   23.13381404385980
C         0.62037129273773   14.66020201737080   29.97838892716755
H         1.26006383253394   15.47363706448683   30.33964194357808
C         1.74701281726107   14.18406760039323   26.73808298815172
C         0.33313819984982   14.94241827509852   28.49817219109617
H        -0.30984899012765   14.15891827098848   28.08162739173888
C        -0.70984048611893   14.71629505900906   30.73180934991733
H        -1.37965750259480   13.94446482600043   30.34994320926659
H        -0.53785984502665   14.52535835558497   31.79095422250673
C        -0.33318629530775   16.30327187954941   28.31009801743606
H        -0.51545241341835   16.46720978349786   27.24584779618568
H         0.35089570910107   17.07958027736078   28.65892975745929
C        -1.37487329173137   16.07920255492520   30.56324413450067
H        -0.72713093926408   16.85661716284391   30.97460849913220
H        -2.31396347025591   16.09885491409151   31.11950419261608
C         4.51226034789400    9.65845160346831   21.61002086978216
H         5.24887503137220   10.05643392123256   22.31841556662273
C         5.88156722159554   10.40760218160476   19.63974192232038
H         6.64830423742011   10.79914387835403   20.31744861644630
C        -1.64599324031801   16.37677697822130   29.08906177000696
H        -2.32408856199266   15.61031930029826   28.69737512966655
C         1.40697677568872   13.34732308327775   30.17673426325489
H         2.27061731453804   13.39272937621005   29.50288386997158
C         4.67533026113535    7.30544589821862   22.56864759844664
H         3.70105628311438    7.54193358824261   23.01146260775702
C         4.80760609540390    8.18581509767788   21.30819514154436
H         4.04490062998885    7.84534254125191   20.59884597577184
C         6.19296357286222    8.94050556601728   19.34603531096272
H         7.17398334643869    8.86186276532034   18.87367123778306
H         5.45277379711898    8.54855147648320   18.64481799736970
C         4.52622124897072   10.50479214821877   20.33877375976035
H         4.30988999593420   11.54342611364210   20.59828655903453
H         3.73733185994038   10.14982031462913   19.67199019695815
C         1.94966608983472   13.24910343199695   31.60227297762707
H         2.61290800810205   12.39178525656844   31.68818634217296
H         1.14260040741610   13.12248292040687   32.31953122957693
H         2.51183769206222   14.14218239927513   31.86538508626994
C         0.60794695817061   12.08985333085921   29.83955243872375
H         0.22142095022977   12.11757558545977   28.82398506406337
H        -0.22351246606408   11.96006387447509   30.52744855314536
H         1.25292494783317   11.21812770456162   29.92405783377560
C         5.88637664116728   11.24118270139637   18.36215982788585
H         6.85634302229889   11.18307681296582   17.87431333926412
H         5.67602474131654   12.28425409157636   18.58524290345812
H         5.13103227537020   10.87883885646035   17.66822795916407
C        -2.29840045925469   17.74425569286125   28.91119934057808
H        -2.49780829263641   17.93969094887139   27.86040951479361
H        -1.64657585605178   18.52892730005591   29.28890269573792
H        -3.23962692202267   17.78953150026255   29.45359798339276
C         5.75070005914299    7.57026240557890   23.62055622249152
H         5.53846667316794    6.98378661103281   24.51169642784862
H         5.77864531443520    8.61744204062559   23.91160833443018
H         6.73334158008855    7.28257201131700   23.25529406357297
C         6.17505788224021    8.11061038383833   20.62647774408805
H         6.94304093817610    8.48706261058374   21.30374472546353
H         6.40829688407111    7.07271305657102   20.38930169274212
C         4.66422235618883    5.82237298810561   22.20057390763277
H         4.43370915737073    5.22368942617516   23.07840342230679
H         5.63358671779541    5.50609971804437   21.82332055489514
H         3.91249521366807    5.61764520808264   21.44191843987184

