47
CSD_code = LAZXIT | q = 0 | S = 0 | Stoichiometry = C22H16N6NiO2 | MND = 6
Ni       13.95787731272283   -0.19137054742439   11.42256638380422
N        12.90398678692285   -1.51933058609038   10.47314051191267
N        12.04813632182250   -0.33863937535714   12.72549251362261
N        13.15416842230727    1.10264606179599   10.39316852363121
C        12.26605206584461    1.87445350533735   10.30358192917151
O        11.39333830918564    2.63178896804214   10.07992736740004
C        13.39291625410954   -2.28193024689293    9.50524462743699
C        12.62052963429125   -3.18737486516010    8.79728366858204
C        11.27885119994561   -3.31526823529238    9.12319483611615
C        10.76515391408636   -2.52047226567599   10.13071189484639
C        11.60202842412211   -1.61636766588469   10.78118610772369
C        11.11932291030600   -0.70391989352940   11.82937055601837
C         9.82488905101412   -0.19572098907425   11.84661183208764
C         9.48888061913404    0.72931952691421   12.82098661428948
C        10.44870671052737    1.10317292606980   13.74756660413543
C        11.71146762493506    0.53612485468480   13.66168334826650
H        14.44394611827155   -2.15262678149676    9.28066257957919
H        13.06150595618988   -3.77684909450783    8.00922621559351
H        10.64658647783088   -4.01770713684158    8.60108613774051
H         9.72964638705341   -2.60044823706634   10.42152202532586
H         9.11055486640928   -0.48124626474695   11.09057640824864
H         8.49884823051959    1.15920679210844   12.84619383895080
H        10.22655277633210    1.82543750732583   14.51688635603048
H        12.49466274184510    0.79885363217561   14.36028133620469
N        15.01040227457335   -1.52208296097481   12.37178267595200
N        15.86762422249107   -0.34218096328607   10.11964021452904
N        14.76383888165238    1.10053632885975   12.45294466930684
C        14.52070013969375   -2.28444421611904   13.33941134885229
C        16.31260283529889   -1.61892574038555   12.06487518725308
C        16.79564813626245   -0.70597690456915   11.01721416184738
C        16.20458210812259    0.53290442930777    9.18380900327075
C        15.64693797823310    1.87860295394099   12.53944388985216
C        15.29283539184855   -3.18914718353580   14.04866561715040
H        13.46943521651226   -2.15542391126119   13.56301210778022
C        17.14912314739005   -2.52274254010916   12.71613031730205
C        18.08914865293272   -0.19544299027907   11.00239766612110
C        17.46623047900265    1.10283996465058    9.10071788466790
H        15.42251093940368    0.79366017502744    8.48319994308856
O        16.51585555031261    2.64097997415774   12.76070866595910
C        16.63475781887783   -3.31695618040400   13.72380736991800
H        14.85147984736444   -3.77807874840350   14.83692082903183
H        18.18479490793035   -2.60289677844230   12.42592371247289
C        18.42495643091014    0.73095981786026   10.02921457318993
H        18.80269592619817   -0.48020350960338   11.75947120179472
H        17.68829301225760    1.82582821753015    8.33205710116909
H        17.26672545826299   -4.01897898772485   14.24684896099584
H        19.41391152874754    1.16343816435542   10.00645068178701

