50
CSD_code = LAZYAN | q = 0 | S = 0 | Stoichiometry = C22H17N2O8V | MND = 6
V         3.92227198568977    5.12064820815542    3.11036295909096
N         4.99605528825298   10.21179133415746    1.69856051390565
H         4.92668514872673   11.11777083883522    1.25421913680301
N         3.06809765110440    0.04421536991267    4.52816198651492
H         3.23528947208592   -0.85831775174739    4.95319901301902
C         2.40311437623135    0.08567819140402    3.32972197502762
O         2.93017057509479    7.04274255000969    0.10237502973687
O         4.02295909571635    5.62249393551252    1.43095817936596
O         2.54880743141286    3.64245326909218    2.70533862622928
C         3.34618355352208    2.40433337508578    4.58262435948735
O         3.60282329609691    4.73232937682993    4.86593191386959
O         5.18885860728562    6.61154361176464    3.57859031151782
C         5.74131671491095   10.10440446159595    2.84545415440375
O         4.35408908354386    3.39729662096429    6.47915826133826
C         2.19434601833285    1.32647683660910    2.70430074108915
C         4.36930240464084    9.14809984587059    1.16578535463088
H         3.80546992348806    9.29395795089773    0.25434931643724
C         3.84824758838643    3.59616446841715    5.39114359851824
C         3.50396719802786    1.16509764307189    5.12858088173059
H         4.00280986145162    1.07065804192583    6.08374328351928
C         2.70293708422670    2.56082037327589    3.30210045673522
C         1.93745062937641   -1.08814707822654    2.72943894322468
H         2.10626034094901   -2.03449400093396    3.22449923271561
C         5.13114957086492    7.68898131138982    2.96145531120780
C         4.40957957624714    7.91006660057828    1.73425098783051
C         3.67943954560054    6.77858270361074    1.02020572946340
C         5.83280774922423    8.85937512977404    3.49026022244165
C         6.40078910046384   11.21713176599762    3.37589586620824
H         6.31975237682524   12.16787232407704    2.86738724948869
C         1.52475898238919    1.35301552425744    1.47225856458777
H         1.38825610398251    2.31339153593110    0.99793475870488
C         7.14652079498912   11.11007410897488    4.53146301515138
C         0.76939733250586   -2.29452403098880    0.86869781465376
H         0.97774210656534   -3.17073371810478    1.47646823745777
H         1.24135833996167   -2.42351047861600   -0.10412959276453
H        -0.30524863901510   -2.22702685167809    0.70705546626504
C         1.27247560445278   -1.04677369284124    1.52180854632353
C         1.07285477571793    0.19339946638767    0.89685016778149
H         0.55926484565983    0.22334350099962   -0.05223577578359
C         7.23397801552370    9.86503545711222    5.17249359600656
H         7.81552011744262    9.78352659817216    6.07823288828923
C         6.59203047571791    8.76447372929414    4.66565751511095
H         6.64646711779236    7.80100414070132    5.15057598331948
O         5.03491886964001    4.07518954394828    3.00109659210450
C         7.85689075326584   12.29181188037892    5.10968499624435
H         7.69882541059759   13.18240950254399    4.50770763146336
H         8.92600045353049   12.09409620538251    5.16904547204300
H         7.50136612385577   12.48458543222667    6.12068285242336
O         2.64132398673790    6.27446073104285    3.28113039513737
H         1.94756718091575    6.49512410697237    3.90556727993100

