31
CSD_code = LAZYOA | q = -1 | S = 0 | Stoichiometry = C10H12CuS8(1-) | MND = 4
Cu        4.39883693599892    0.28630888540893    0.16327259762688
S         2.58266621994297    1.51420382069211    0.27895195672177
S         4.00015703838587   -0.50724348408547   -1.84934492892885
S         0.55291871859149    2.17445181336453   -1.78839847676034
S         1.68684684433996   -0.11377575026705   -3.65576452924606
S         5.59011257229992    1.68109661393555    1.36832802570843
S         5.41527914132618   -1.53437223120427    0.86707179501727
S         7.55588052121541    1.17750350087849    3.53952612806899
S         7.69294433109934   -1.87823299631013    2.72705086278975
C         2.51417949792811    0.32081642404404   -2.15483018674367
C         1.99363091772080    1.24701797569687   -1.32246868749561
C        -0.73237810871079    0.90713803647346   -1.47636740787742
C        -0.96098075831186   -0.00430272766871   -2.67384477590804
C         0.20218415121956   -0.94294752059194   -2.96288482588594
C         6.51812059483120   -0.79362899667126    1.97278985823618
C         6.50559504377962    0.52381547816740    2.26584450819207
C         9.14652917291242    1.20803274655353    2.63160847420161
C         9.89906509125811   -0.11201872061854    2.72109255671128
C         9.23681077916210   -1.24987181641139    1.95676393404258
H        -1.63739834806365    1.47116732494649   -1.25235463014385
H        -0.42610288596437    0.34934715677479   -0.59161576178644
H        -1.14737367737196    0.61121692412079   -3.55634470615700
H        -1.85305467030429   -0.61077106908281   -2.48231637588604
H         0.52406564205655   -1.47322672476271   -2.06681218036356
H        -0.08247031423574   -1.66732933018852   -3.72577776091824
H         9.72391119828764    2.00483540727955    3.09969579922558
H         8.92338427324659    1.48144736467812    1.60051519621928
H        10.90600795557135    0.03493056853228    2.31523108419963
H         9.99047323643101   -0.39658538122171    3.77136537754444
H         8.98679216461007   -0.95812758166402    0.93689955180195
H         9.89676672074769   -2.11679571080008    1.93051752779189

