74
CSD_code = LAZZUI | q = 0 | S = 0 | Stoichiometry = C38H30IO2P2Rh | MND = 5
Rh        7.29146457457980    3.63934915367528    3.14200660066036
I         5.26123854250382    2.64084466546220    1.53208221763484
P         9.01728054445277    3.76961975455131    1.59826170090736
P         6.57261944573749    4.00198912325471    5.29564102833939
O         6.43011771226143    6.42286083884743    2.42327815232951
O         8.40524337345657    1.10564769868377    4.28797152675671
C         6.75763444083517    5.35713771863988    2.68147194588350
C         7.95810851896099    2.03602579414964    3.78580832260148
C         9.07400454849780    2.52206414382206    0.26844421031768
C         8.63858999142675    1.23142064034086    0.54829842615680
H         8.24799571620238    0.99631310591451    1.52916090517756
C         8.67773409563184    0.25273646401439   -0.42701544934761
H         8.32552925641898   -0.74271288986758   -0.20266723723189
C         9.15361567255108    0.55612343310093   -1.69120933459095
H         9.17647155941555   -0.20437078680531   -2.45735441538962
C         9.59134654147777    1.83923897458384   -1.97635798929712
H         9.95921079011082    2.07926417089458   -2.96342546435979
C         9.55300465692933    2.82199499990580   -1.00453924995058
H         9.88419480181153    3.82471141446958   -1.23892583597417
C         9.03795166344591    5.31488339441324    0.64103219744001
C         7.97730375603943    5.52015863398649   -0.24175043111543
H         7.22893948179488    4.74679554745257   -0.36650646611364
C         7.88774443487862    6.70121055203291   -0.95097698219605
H         7.06688635916967    6.85612346985262   -1.63518496728082
C         8.84833739993401    7.68680979940053   -0.77840411716306
H         8.77754381070526    8.61137683571487   -1.33202248718116
C         9.89487799791637    7.48994593182768    0.10655484791401
H        10.63959913831482    8.26056838254550    0.24440262026864
C         9.99167421834034    6.30846082886908    0.82195329907171
H        10.80539288319927    6.15737412300331    1.51866454870789
C        10.71058091764877    3.68490366244028    2.27759660071777
C        11.81007062914260    3.34069701248797    1.49815978013994
H        11.67748400152133    3.09337326039780    0.45444978094010
C        13.07103957972701    3.30841155701877    2.06512762133847
H        13.92311114626207    3.03768100236881    1.45887388901867
C        13.24534516994273    3.61897196635831    3.40485769875037
H        14.23283118796106    3.58827993353475    3.84105879765328
C        12.15332481786346    3.96365574354497    4.18398687363726
H        12.27999358965557    4.20390903806477    5.22977413760482
C        10.89096110894503    3.99334487088166    3.62160742901054
H        10.02990427559536    4.25687920704636    4.22804302740558
C         5.64328765402791    2.70547504207879    6.17653735157680
C         5.34080180023925    2.87882692373903    7.52589515179869
H         5.68882180830779    3.76253136477928    8.04448260848169
C         4.60263114654573    1.92177708236892    8.19309021671971
H         4.37313502971343    2.05394567438339    9.24047667836953
C         4.15133342589149    0.79605938371759    7.51908311190574
H         3.57214303071714    0.05147335234890    8.04485364646318
C         4.43390531720589    0.63141703517100    6.17452153829725
H         4.07298562689877   -0.23695851777688    5.64428805280532
C         5.17702172936685    1.58570208693782    5.50082053542890
H         5.38322761950628    1.46259218469845    4.44596732102778
C         5.43310144923376    5.38990439079169    5.60063055029223
C         5.57658599003099    6.31563805542860    6.62660115736024
H         6.43171287361082    6.27345615646571    7.28733443447718
C         4.62158480365349    7.30301053146656    6.79561899801468
H         4.73794188697973    8.02668847490423    7.58950775472259
C         3.52248039981846    7.36542202414915    5.95546017339907
H         2.78344643483314    8.14077242475916    6.09278528012401
C         3.36930035387068    6.43331483303622    4.94106281182338
H         2.51092238761883    6.47545723206885    4.28762860097848
C         4.32046654110868    5.44769942497454    4.76393770617295
H         4.20623807916331    4.71408014698510    3.97450468285981
C         7.99508473374737    4.32173624385350    6.38417703583460
C         8.51310981240978    3.35346698662121    7.23694869910627
H         8.00291222045504    2.40689020288355    7.35260543466683
C         9.68318071892085    3.60219815645246    7.93351512850343
H        10.08079770251145    2.84771293832580    8.59639933236671
C        10.34537018291551    4.80850689956991    7.77947541623116
H        11.25675223532719    4.99838151734492    8.32717800121290
C         9.84492638964568    5.76958357439134    6.91330011983997
H        10.36745599490907    6.70587733566968    6.78060894310724
C         8.68283862002325    5.52290038623899    6.20929268732763
H         8.29799364943565    6.25648728040683    5.50928307925549

