87
CSD_code = LEBGOQ | q = 0 | S = 0 | Stoichiometry = C44H32Cl2N4S4Zn | MND = 4
Zn        7.14918519770586    8.74310183239701    1.09709025793425
C         6.46575032207190   11.79265226877271    2.01464105392950
H         5.69414559536781   11.29556643754928    2.57825694494794
C         6.70849711380216   13.16906131790553    2.20202084620027
C         7.77259563599837   13.72363842117002    1.50624710359848
H         8.01061519198373   14.77247896987079    1.61964312893630
C         8.54590794378933   12.92446269030170    0.65840108725166
C         9.65880192828795   13.42408290703109   -0.07906548566718
H         9.91304640888726   14.46839426044693    0.03021718895185
C        10.38009388156488   12.61407083666399   -0.88922972168741
H        11.22259465451696   12.99659849990731   -1.44718376824145
C        10.06081814401316   11.23075906326082   -1.02044411112192
C        10.79254224188268   10.35464966675262   -1.83230190072571
H        11.65087685200536   10.72740688812498   -2.36955678379728
C        10.43504752518713    9.01680546326159   -1.90155956651765
C         9.35682292192074    8.59035603366022   -1.09411314494721
H         9.04836812070508    7.55177319852669   -1.07745802228190
C         8.97002248731483   10.70131161539571   -0.29546336555044
C         8.18913194920567   11.56104355164685    0.53705711888509
C         5.89688901093913   13.96291591484282    3.10019080140970
C         4.58200080799655   13.81654020340419    3.47683434519327
C         3.62307508756641   12.78194514822745    2.98143416690440
H         3.84144339814936   12.49384408362283    1.95495446683661
H         2.60914531309845   13.17455424459221    3.02618224032248
H         3.66099886685150   11.88876490263556    3.60690442162514
C         4.17811755259554   14.81881050112949    4.39231534686490
H         3.18464924057941   14.87117697449303    4.80139033461858
C         5.16123547437929   15.70105449502459    4.70023450093113
H         5.11918912751936   16.54256833596538    5.36253334311002
C        11.12165701140935    8.05947885513983   -2.74204279849868
C        11.70608760521377    8.23861262823728   -3.97534677627983
C        11.72351170043390    9.50855474725670   -4.76338182599513
H        10.86318249068037   10.13092403997797   -4.52609717254938
H        11.70995128824939    9.27946506226588   -5.82695847859288
H        12.63096403970352   10.07761079291191   -4.55760319406850
C        12.26594125756370    7.03881640194837   -4.47150939919796
H        12.76543779940980    6.97317969997801   -5.42193863445830
C        12.10802695646504    5.98444011740370   -3.62988256967198
H        12.44296576537424    4.97514067985204   -3.76460742552075
C         5.73581758065871    9.49853499097896   -1.69045005640272
H         6.71959186544834    9.28535466879564   -2.07301947870742
C         4.70105199632588    9.92050273481095   -2.55197233933176
C         3.43528773329803   10.06268417918269   -2.00114545820923
H         2.60311867227638   10.36777660000590   -2.62099480895364
C         3.23096711398852    9.80679145194602   -0.64091399656905
C         1.95931281772910    9.91145361733416   -0.00363384350434
H         1.10981226752384   10.19400299249299   -0.60841539000771
C         1.81636324471536    9.66074576271898    1.31963085118666
H         0.85051821494542    9.74031854901783    1.79700452515620
C         2.93134401780224    9.27956177366861    2.12338229834496
C         2.84177364227069    9.02822510299196    3.49742590853989
H         1.88781568420026    9.12082202891557    3.99863855844232
C         3.97529084155413    8.67157659836010    4.21484415591202
C         5.18254319350241    8.52906603259630    3.49411421184795
H         6.09082777874521    8.19798697597536    3.97249019801855
C         4.20432238272405    9.16307389166337    1.52161351243082
C         4.35822347046730    9.43651787208166    0.12833851467066
C         4.95204010291922   10.17535839310096   -3.95437800279153
C         6.10334841929764   10.58257427423055   -4.58844548328856
C         7.40821937411713   10.91636863218235   -3.93842530058658
H         7.26254353746651   11.34112460528713   -2.94689384923733
H         7.94577642192505   11.63690064159194   -4.55221629805137
H         8.03142539383001   10.02563895752846   -3.84425898593333
C         5.92063275071239   10.71021209110923   -5.98686539515297
H         6.70607135709214   11.01821232619255   -6.65424013049781
C         4.66463252210750   10.40784819833663   -6.40052627433235
H         4.26922470964187   10.41959764616731   -7.39654533636434
C         3.92858617051032    8.43721649518126    5.63987602229358
C         4.91139768809098    8.59385941145312    6.59076760747827
C         6.29060468586328    9.11455046814297    6.36508336551498
H         6.65988179724529    9.57771830337951    7.27769175839067
H         6.32275593853187    9.84540225752765    5.56078945669021
H         6.97559511784863    8.30889554280619    6.10165613288008
C         4.44887196093437    8.24638183197862    7.88413039868937
H         5.07044840640478    8.30000789189790    8.76033915126780
C         3.15526432625730    7.83954208491748    7.91095160079993
H         2.57252612586484    7.51949794228545    8.75179224255937
Cl        8.40962494629515    8.94359536365652    3.01231615489278
Cl        7.09028579733568    6.62444442812303    0.29867200278781
N         7.15693982765969   11.03634307559864    1.20641413438040
N         8.66054487392550    9.39822768036909   -0.33989352329707
N         5.57241244344108    9.30072350436677   -0.41216187353409
N         5.28238133478038    8.77914126419651    2.21616714543991
S         6.61916336509580   15.35052371351623    3.87306509502568
S        11.25296777618521    6.40726983261927   -2.20826257629990
S         3.64854510401065    9.96656503460237   -5.09475798904846
S         2.43637129608706    7.87855053255842    6.35671683331882

