57
CSD_code = LEBJIO | q = 0 | S = 0 | Stoichiometry = C20H28N6O2Pt | MND = 4
Pt        1.11067301888171    8.10132158229773    4.48336384022641
O         1.33486168392364    8.04659443752253    2.45754428656160
N         2.07973280030269    6.95283123117374    2.11473236131980
N         5.81493224531540    1.65064283492038    2.03690573409516
C         2.52350061367147    6.15076889911024    3.07084209439878
C         3.36719144374380    4.98617697855053    2.75562726154244
C         5.01027854400080    2.73751794228571    2.26109830349730
C         6.94413941671946    1.75187376296368    1.14698689727613
H         6.63720698052405    1.95702046349628    0.11431108427343
H         7.49948295705448    0.81690256170164    1.15918372113174
H         7.61955253198902    2.54585851772949    1.47444931830483
C         4.48552273571428    5.08138665195300    1.93121098972903
H         4.74344257543736    6.03232191600800    1.48988083039258
C         5.28842788834408    3.98809873409135    1.68801501601755
H         6.14188749055224    4.11653410489674    1.04324299949253
C         2.12634647238048    6.71889228687850    0.69673956789460
H         1.14026316800324    6.94456041724519    0.28648044232797
H         2.38458372845442    5.68200406489212    0.49124891764361
H         2.85341630900509    7.38251313283984    0.22028069097413
C         5.40573559185576    0.34303722357425    2.48720001817448
H         5.38442839161621    0.29523524497509    3.58002517757528
H         6.11391673441805   -0.40165720773621    2.13217348257920
H         4.41323783533729    0.07856651084752    2.10692367009199
C         3.09304628228039    3.75192990409903    3.34053413595188
H         2.23130012630360    3.65230653217102    3.98471787532582
C         3.88451278712476    2.65161106159284    3.09516413835170
H         3.62330966146035    1.71869328949583    3.56616295489551
N         2.19515408860745    6.44869684491294    4.31483302577131
H         2.59765141855933    5.85668034206247    5.03057764841400
O         0.88594706736137    8.15610868845671    6.50927538408738
N         0.14015238464049    9.24937373467711    6.85175170587392
N        -3.60042989721088   14.54771286676971    6.92821691966073
C        -0.30392613886767   10.05098179905499    5.89540012505464
C        -1.14909852147759   11.21464395394588    6.21003972267009
C        -2.79486618908618   13.46155454173634    6.70385239644665
C        -4.73006604406722   14.44522604227208    7.81743740428102
H        -4.42359203759958   14.24092701299201    8.85042582641332
H        -5.28678675389904   15.37937015994581    7.80449829754341
H        -5.40407825672175   13.65012457570537    7.48983089427748
C        -2.26746138739921   11.11834975963054    7.03431220949448
H        -2.52430784236332   10.16723535824305    7.47587791529000
C        -3.07168320931439   12.21075579789903    7.27712150205674
H        -3.92507839183352   12.08149941291333    7.92182130874994
C         0.09304142262889    9.48361957740970    8.26967267949304
H         1.07938343820345    9.25952746078222    8.68019698857248
H        -0.16674487011555   10.52019048637039    8.47483597042292
H        -0.63314176356271    8.81906563657489    8.74617642662994
C        -3.19240339077817   15.85572855571426    6.47801946952131
H        -3.16955436215257   15.90314430386493    5.38521700019119
H        -3.90214029808541   16.59959473445813    6.83167128581448
H        -2.20079596172124   16.12173802296916    6.85961797881808
C        -0.87645052774199   12.44902628488699    5.62470946232105
H        -0.01485559037540   12.54946894744426    4.98045333131214
C        -1.66920274153135   13.54849505980059    5.86975082815848
H        -1.40907196757742   14.48157327655771    5.39848342256805
N         0.02547284953954    9.75328378703871    4.65164352265764
H        -0.37729654047056   10.34465989532844    3.93553353739004

