40
CSD_code = LEBJOU | q = 0 | S = 0 | Stoichiometry = C12H20ClN3O2PtS | MND = 4
Pt       -1.33995887944158    1.93875610958631    8.38680536397524
Cl       -2.02961957692967    1.56517100788456   10.50363295969175
S        -0.55256854662307   -0.13991670722009    8.46616549153380
O        -2.04068802923773    3.82387949090195    8.23308677464492
C         0.74545959255903    4.18723434171757    2.92063322022442
H         1.73217082028474    3.98303765790557    2.54054567973108
C        -1.48352707949988    5.03462976772344    2.67363229773499
H        -2.26275664080703    5.50345904612495    2.09663070638923
N        -0.75970583919117    2.36051683694071    6.53254845903543
H        -0.32753015968637    1.74981028565343    5.85385221815258
N        -1.74275537972997    4.33452058364239    6.99327355209519
N         0.07797300904338    5.22588326905676    0.84027559293018
C         1.38774440245977    4.99933157418877    0.28136342487386
H         2.15878357920177    5.42535646486724    0.92737124927149
H         1.45708508213360    5.48877044006979   -0.68713984533904
H         1.59520320498275    3.93193988860038    0.14386678463462
C        -0.80782358980765    4.03440446859857    4.76247110455594
C         0.44831642525417    3.79748704419676    4.20685192889453
H         1.20844437889082    3.31320483302191    4.80239960228206
C        -1.10461099873143    3.56932848374574    6.12446821724132
C        -0.21266253284767    4.82267346905109    2.11288053946869
C        -1.76894624150321    4.65314268282065    3.96546021681277
H        -2.76370888742527    4.81199019132546    4.35291619382864
O         0.11617145764930   -0.59824347238736    7.25483502948629
C         0.57742776215236   -0.43924344539117    9.85923687280622
H         1.45281355815180    0.18527662906465    9.71717124589420
H         0.86000271689943   -1.48532400964788    9.86265268926720
H         0.05054794821989   -0.15556116402196   10.76309777148635
C        -1.81889221155064   -1.37432355861366    8.89014163532232
H        -2.26786368075142   -1.06153226408560    9.82588647561475
H        -1.34811933856915   -2.34714810956970    8.96868479655873
H        -2.55781693087484   -1.37861599967239    8.09602620337967
C        -0.96937191585974    5.70849595163938   -0.02662334261221
H        -0.56883009161037    5.87234437490058   -1.02374683781157
H        -1.37414132398440    6.65793854416227    0.33668524293919
H        -1.78779326619998    4.98588459634089   -0.10363726022711
C        -2.03387987627782    5.73830589374664    6.88366643145898
H        -3.10168335809760    5.89683072616872    6.71416141838249
H        -1.45887019696858    6.18010643166876    6.07280953733032
H        -1.76621936567797    6.20809764528951    7.83156035805697

