57
CSD_code = LEBKIP | q = 0 | S = 0 | Stoichiometry = C20H28N6O2Pd | MND = 4
Pd        1.75971722476293    3.76574162752419    4.46114149660459
O         1.98764527467673    3.71932083131235    2.44912161742951
N         2.83825175070296    2.09366090081175    4.31662437992908
H         3.25217679656871    1.48941536049585    5.01950922987534
N         6.45404028801777   -2.68878938202410    2.01301671150390
N         2.72490267824247    2.61924164678735    2.11382515916867
C         4.00845708305190    0.64645523268203    2.74312064237780
C         5.64934466623770   -1.60273531826112    2.24150224850811
C         3.16504599231301    1.81221168195300    3.06749280901704
C         2.77715945762405    2.38296856239937    0.69486722510355
H         1.79078724146333    2.60276810677443    0.28149782261647
H         3.04236082278476    1.34776186064705    0.48967680626115
H         3.50124636170223    3.05128134688524    0.22042537163690
C         6.06048351235652   -3.99349427867716    2.48391308356040
H         6.00238793686542   -4.01090701184284    3.57585928793205
H         6.79990661414985   -4.72891326959834    2.17639818290286
H         5.08847977731176   -4.29502687930045    2.07768737374076
C         7.57035321647631   -2.58761727772134    1.10667612105892
H         7.24918919293923   -2.33784457293765    0.08865522952705
H         8.09809583999067   -3.53778530640320    1.07381477064479
H         8.27510214031203   -1.82433119469859    1.44703697389648
C         3.72239056230950   -0.59398460840356    3.30880260985949
H         2.85173144291378   -0.69814529494383    3.94040421378403
C         4.51223326984378   -1.69470613058101    3.05925230333288
H         4.23851319707070   -2.63305369255656    3.51189380399698
C         5.93915316845616   -0.34622062678825    1.68735877253545
H         6.80284304917834   -0.21276315536872    1.05741802711063
C         5.13710366694050    0.74716003811369    1.93366346992261
H         5.40366091188548    1.70230591588203    1.50662585135353
O         1.53203845700775    3.81225918868680    6.47318176952929
N         0.68168262037451    5.43813876646884    4.60577033975864
H         0.26824308967770    6.04285194340902    3.90300764668021
N        -2.92426708900424   10.22723880861840    6.91153085189872
N         0.79567681963195    4.91289927751280    6.80860439038507
C        -0.48571190511455    6.88722421382743    6.17963716896576
C        -2.12192343963616    9.13957197900677    6.68239630724314
C         0.35580483833623    5.72015253918357    5.85501365531786
C         0.74347206696150    5.14893808864453    8.22759549796483
H         1.72954840829851    4.92797086052337    8.64103657398283
H         0.47937502956343    6.18439136415899    8.43297456250003
H         0.01858618402324    4.48132054359782    8.70180444917762
C        -2.52780298567920   11.53134824556879    6.44137555671943
H        -2.47010499309193   11.54935638787761    5.34941522311009
H        -3.26538692915637   12.26828960110373    6.74967395075526
H        -1.55492711835350   11.83032216034437    6.84743210348614
C        -4.04016294513337   10.12821194966571    7.81862757032115
H        -3.71885642548467    9.87782642383491    8.83645519164001
H        -4.56606863194927   11.07937601414702    7.85180981010274
H        -4.74658643320112    9.36629739860620    7.47871449428069
C        -0.19749469321989    8.12718593753628    5.61399317553483
H         0.67308983708945    8.22973533398577    4.98202528069854
C        -0.98505234786144    9.22941838185236    5.86408107510852
H        -0.70969446079587   10.16728838703068    5.41143314182596
C        -2.41401459767931    7.88350739073331    7.23636077654208
H        -3.27769944399311    7.75163145834000    7.86663843389286
C        -1.61423349350582    6.78857791755547    6.98951322121941
H        -1.88249255525388    5.83389432601911    7.41651618616276

