36
CSD_code = LEBNOX | q = 1 | S = 0 | Stoichiometry = C10H18BrN4O2Zn(1+) | MND = 5
Zn        8.17322500614767    1.45358918016289    0.11865227474276
Br        8.11255000948012   -0.58297429673392    1.29826571058137
O         8.65648083828317    2.75139428292559    1.76547039044178
O         7.71242579773725    0.69513564439157   -1.84086440322571
N         6.37310013628914    2.22708544244584    0.48340397815518
N         7.65222683844704    3.83382288015888    3.45161306086062
H         8.51351368877727    3.87364715714815    3.97750247740212
H         6.81827717121392    4.21012564300362    3.86974518737937
N         9.99728535265907    1.44793693537251   -0.68319565374614
N         8.72520291653902   -0.26254270880214   -3.59597082097018
H         7.85452495587109   -0.66026629067484   -3.91801418819778
H         9.56471851888273   -0.46830065557187   -4.11046288026598
C         5.11665192776684    1.58948366424981    0.33527801868092
H         4.81965235330754    1.61333343324776   -0.72060329370965
H         5.21835805140708    0.51982424062304    0.57715204746909
C         4.13291204741783    2.28315517371066    1.28210585738596
H         3.39768789241994    1.59615111214279    1.69180820993768
H         3.60764288867404    3.08272555697785    0.75781570983850
C         5.05718630910147    2.86807202303115    2.35196086711774
H         5.29593980378795    2.11281921108862    3.10327843330656
H         4.62928522011314    3.74041630160735    2.83954441129486
C         6.31279414214388    3.19297671664197    1.52401735365827
H         6.21379216341875    4.19371157087047    1.06260476968429
C         7.64821978718041    3.23549286242641    2.26603570225626
C         8.72963146507783    0.46268303312492   -2.48346561787322
C        10.07843061904338    1.02643254631972   -2.03789536875402
H        10.23459762850043    1.92064867877418   -2.67049144556718
C        11.29823750634874    0.09331420254068   -2.13455172888571
H        11.75500124573674    0.08776487988154   -3.12106745222199
H        11.00727912802974   -0.92346149065031   -1.86359024103705
C        12.21856989021392    0.68787443688107   -1.06656304959712
H        12.91102408783341   -0.04136592571064   -0.65532240241816
H        12.79286362748781    1.51751071628613   -1.48133249908226
C        11.22583321573348    1.20465112978059   -0.02116132533464
H        11.54761284422482    2.11830780934788    0.49406356187492
H        11.06906492470569    0.46692490297820    0.78153434882045

