36
CSD_code = LEBNIR | q = 1 | S = 0 | Stoichiometry = C10H18ClN4O2Zn(1+) | MND = 5
Zn        8.02580238593255   11.97268997710141   -0.07449542646200
Cl        8.48348103002318    9.87802662260009    0.49802086640725
O         7.57097774862517   11.31908747440134   -2.05421983898506
O         8.53519769225766   13.05201179847550    1.71595667041667
N         9.87118370001381   11.95964033300396   -0.82827808345389
N         8.56372816719357    9.95458477467586   -3.53027050185256
H         7.67163010532429    9.60589885766024   -3.84992665111041
H         9.40124510639477    9.54654159765411   -3.90961284487925
N         6.24528103897945   12.59662009897837    0.43242624817430
N         7.55403334004767   14.06966022530807    3.45458391356668
H         8.42230710413566   14.08724263042534    3.96992184515705
H         6.72929587397317   14.44504036362389    3.89146483785260
C        11.09539552944524   11.82391823702380   -0.13200290695200
H        11.48108715702504   12.82637333865910    0.09956131791780
H        10.90811335276598   11.36340008207521    0.84566858589174
C        12.04084570537425   10.98274872767027   -0.99948465677490
H        12.62844808693769   10.28515018521127   -0.40948725062474
H        12.72346714164177   11.62972947720536   -1.55223419533291
C        11.08238239202069   10.27470323215779   -1.96005055661862
H        11.55384889092207   10.02144283494469   -2.90627409842547
H        10.67470587069647    9.37555224084710   -1.49531842752630
C         9.96616292237543   11.32244059191031   -2.09275133749090
H        10.26098786713264   12.09162031523410   -2.83250314767546
C         8.58877013111291   10.85132352988689   -2.55123336747093
C         7.53271146731043   13.52357594662262    2.24318096792135
C         6.19506903996661   13.52691273565541    1.50954890576309
H         6.09681289996647   14.54675255831336    1.09210742653420
C         4.94116503264156   13.17337647999834    2.32764353222599
H         5.17732253069717   12.38675752630838    3.04640598007455
H         4.51877822714559   14.02677823253365    2.85230818889219
C         4.01045335403134   12.63919367107292    1.23699672984855
H         3.26292996698383   11.95075782985002    1.62168096262041
H         3.49948987178196   13.46513636373653    0.74082137644203
C         4.98426955511816   11.96352063539917    0.26660680828850
H         4.67921729040377   12.02280585856993   -0.78485334517968
H         5.08710242360155   10.88918461520683    0.48279147282069

