118
CSD_code = LEBVUJ | q = 0 | S = 0 | Stoichiometry = C24H72ClO9P3PdSi8 | MND = 4
Pd        8.87539618552355    1.13204935864230    1.68501819450126
Cl        8.25086138458626    2.71739623884066    0.13869178572670
P         8.78552774556178    2.61568746425054    3.30277253143461
O         8.75540329243681    4.17850098286695    3.01090627592224
Si        9.83031679659003    5.12664723916997    2.17219157632890
C        10.58814955736351    6.30807942759932    3.46370139751964
C         8.80547036471020    6.08415911703984    0.89058536432291
C        11.20455127882605    4.03655777658989    1.43403665165012
O         9.83461204097535    2.54237621893677    4.47326859985372
Si        9.81099444292521    2.63300213496343    6.13562654854618
C         8.30013807612566    1.79989943701806    6.92784238860762
C        11.43349750002298    1.77583049376855    6.63809118583864
C         9.90589394176514    4.48433037588925    6.61205229530202
O         7.37037839712084    2.43217294504809    3.97986635195391
Si        6.12145232339322    3.53670225886903    4.00529025085453
C         5.67384373225350    4.15309197372565    2.25662960824871
C         6.52187092365085    5.02251448329621    5.13450400930305
C         4.70197507557123    2.52604784813404    4.77605313834514
P         8.72305350725712   -0.50550768259344    0.19722625840976
O         9.19177629316479   -0.10295287998345   -1.28150031760107
Si       10.64010517568090    0.57916687685694   -1.69022642685670
C        11.66551078787034    0.73373103307094   -0.09023382019802
C        11.49968245592520   -0.62412248367307   -2.89081441198702
C        10.29090275029673    2.22866970944396   -2.57341289564231
O         9.50181800826933   -1.85301030208387    0.38762455510946
Si        9.39493561647896   -3.45822033441587    0.02793561924479
C         9.35337740826656   -4.38813399202470    1.68793208641225
C        11.00797508833868   -3.86679249583356   -0.91279446029600
C         7.89806323342647   -3.86537304570396   -1.07920664845939
O         7.26144360828816   -0.99953196669060   -0.12545965876939
Si        5.81463913936237   -0.18991814843948   -0.16395375382780
C         4.57019249323651   -1.59159386571807   -0.50259113449617
C         5.78759921916035    1.04952491502873   -1.61121108329276
C         5.50686614157958    0.58930900724411    1.54733588818195
P         9.16726892925914   -0.40589156026082    3.21456994588908
O        10.43097239222029   -1.32139402942942    2.81043787598485
Si       11.92822063918684   -1.22582186276360    3.46653486993326
C        11.89207038029801   -1.92825897586281    5.24071331542339
C        12.50892933464461    0.59246984110148    3.42511384060873
C        13.00106670439478   -2.33469595293458    2.34723529223917
O         9.15986566219784   -0.18281851377503    4.66852276137388
O         7.95820804588803   -1.38870598749448    2.78559213732395
Si        7.02137561964289   -2.15395059774847    3.90603302931145
C         6.05126538406762   -0.85966318887586    4.92902433446243
C         5.85179259688914   -3.20922950247079    2.82677734390535
C         8.05866288742990   -3.24595328173567    5.07775782829208
H        11.20006706674473    5.77979091095035    4.18789209951736
H        11.21448898154964    7.04243358082550    2.96928374000663
H         9.82326401825195    6.85081304466718    4.01031590070973
H         8.32034980794360    5.40679393622985    0.19470737389358
H         8.03656653196187    6.68463084673441    1.36766181919798
H         9.44287513404524    6.75429359509224    0.32454413148366
H        11.34423439919141    3.16628282845529    2.07863473976869
H        10.93068733747238    3.68898135783261    0.44071214534004
H        12.15826446768551    4.54896783456567    1.35071964572618
H         8.18310451242724    0.81690568401527    6.48329036784764
H         8.42828780395679    1.68052753599087    7.99985180964275
H         7.38171369508296    2.35272791864074    6.75505418066486
H        11.43042185730378    0.74006631349614    6.31917034631704
H        12.30453991739655    2.25571065926414    6.20170874524737
H        11.55036446578402    1.79870960304175    7.71635810212584
H        10.92430617314345    4.85536619206287    6.54229602910751
H         9.28860837388956    5.10186547548184    5.96957430858255
H         9.58250917626982    4.63514394874907    7.63701830305057
H         4.64217629270998    3.93365425596884    1.99548388246946
H         5.80362548199066    5.22857449331561    2.17705086188912
H         6.31344438657125    3.70302952281246    1.50103985573593
H         6.84849561008380    4.71342745944898    6.12333905935653
H         7.30393016888468    5.63897382467852    4.70175234170628
H         5.64015482680938    5.64385649794686    5.25894318636214
H         4.37479644443131    1.71816680946587    4.13123152459335
H         4.97429264035401    2.09154142117709    5.73222089382594
H         3.85345558075548    3.18055727736522    4.94080128748464
H        11.10651677878586    1.32398685586178    0.65104004236317
H        11.80893433164234   -0.25825609305104    0.33632178686466
H        12.63858005204149    1.19758928016487   -0.22362129660098
H        10.79122765517053   -1.04270417923397   -3.59786038221598
H        12.25744576903173   -0.09634707463502   -3.45846090078080
H        11.98462384094219   -1.44709821786031   -2.37778195936672
H         9.77375711176458    2.05256289537243   -3.51210250657736
H         9.66781902784499    2.88892835344154   -1.97732445784784
H        11.21810563610583    2.74353874970119   -2.80210800200624
H         9.90838078060610   -3.82182700326000    2.42946789182852
H         8.34087257489033   -4.50851607497006    2.05965107374318
H         9.79782427860862   -5.37513249281213    1.60344929429347
H        11.87843703159074   -3.43827801020699   -0.42512155868343
H        11.15203533359296   -4.94163044135787   -0.95659910190733
H        10.98382903881630   -3.50099759994274   -1.93479925696090
H         6.96030902959426   -3.70135635138063   -0.55730066180450
H         7.88968663434275   -3.22360857245696   -1.95603447142659
H         7.91824046052182   -4.89748318479872   -1.41704796201463
H         4.80440499325695   -2.11446251461783   -1.42375138798230
H         4.53244461599411   -2.32465107343402    0.29526738065242
H         3.57711522663219   -1.17064856689310   -0.60927157457137
H         6.45582191043322    1.88822955011617   -1.43218627586012
H         6.11430479384813    0.56797362930898   -2.52987465524355
H         4.79023928588877    1.44463416030264   -1.77823207509032
H         6.42327221859048    1.06115942743787    1.92854048914678
H         4.73127401214958    1.34802461311549    1.52211565094603
H         5.21749703125185   -0.16959696585979    2.26980327150193
H        11.74555702498519   -3.00573633954165    5.23640594301717
H        12.81012865020851   -1.72493664174882    5.78329115184093
H        11.06451098232133   -1.48720858718065    5.78850042291931
H        12.90765959716330    0.87567052990327    2.45403041756635
H        11.65303660520424    1.23032298728356    3.64296719294579
H        13.27723670178392    0.80284036586067    4.16261535659337
H        13.16367460939309   -1.90201114812432    1.36590614587377
H        13.97275105252434   -2.47687127971074    2.80599648920007
H        12.55212425994890   -3.31191257122292    2.20480932563155
H         6.43160945368722    0.13372055334211    4.70561784039547
H         4.98174272846009   -0.87176652189189    4.73437042599257
H         6.18320050351570   -1.02477188127760    5.99439034105608
H         4.83665748607610   -2.82829690731675    2.85260998542982
H         6.18067115718835   -3.22645438428140    1.79366689253976
H         5.81502345274861   -4.22933109087371    3.19204724414592
H         8.76013898153118   -2.62013933673992    5.62052388750411
H         7.43304682069676   -3.76061789997666    5.80157532855850
H         8.63403276364080   -3.99600228047126    4.54275000776609

