89
CSD_code = LEBVET | q = 0 | S = 0 | Stoichiometry = C18H54Cl2O6P2PdSi6 | MND = 4
Pd        4.30346524865461    5.44467867566689    5.51723909860221
Cl        3.93528587676502    3.90538620509877    7.15747615040393
P         3.84894579083765    7.00414670963778    6.98367984055958
O         2.98055117098497    6.85281086238898    8.28933152316407
O         3.16462013748703    8.22902395424659    6.26699594624477
O         5.16290064978684    7.63436909752558    7.59464076211827
Si        1.95152079561569    5.87255064813275    9.15430590622205
Si        2.23692020398406    9.53767507087580    6.68180164936328
Si        6.58240769986360    6.83405781227073    7.94331052196234
C         1.07579417668448    7.15311306699424   10.27081050677730
C         0.71067381166291    5.00126757023986    8.00417560548437
C         2.87966177761216    4.65919176778190   10.28582101007140
C         2.47663954896467   10.72707917515352    5.21350637164786
C         0.41976638963847    8.94727730844959    6.76068052286403
C         2.80886391329908   10.25799170322034    8.34884415304806
C         7.74275020938840    8.28610240976457    8.34926248414834
C         7.21337977584427    5.81845493630788    6.45565235062952
C         6.29115548159010    5.68455902747480    9.43307000353043
H         0.58338167000052    7.94534322455301    9.71681524650563
H         0.32461764698415    6.65660187427625   10.87515818762517
H         1.77905137746987    7.62306692500743   10.95152055790672
H         1.23826525600142    4.39138423065710    7.27586386874721
H         0.06476308247211    4.33908754060536    8.57218288281835
H         0.07255943410694    5.69666647350445    7.46441809354717
H         3.38853764441253    3.89176569409314    9.71227046320337
H         3.61427232671100    5.16165159976591   10.90860986821081
H         2.17381365610323    4.16505948616570   10.94628698038317
H         3.13942455869872   11.54865820757248    5.46232567216021
H         2.90463418853347   10.19442372604732    4.37040779193298
H         1.53232237104937   11.16222763324706    4.90286320328150
H         0.29434693781775    8.14837257437483    7.48582698987211
H        -0.24117734514589    9.76006694534501    7.04673736673591
H         0.07865842324820    8.57153813943316    5.79895294114959
H         3.80735435396835   10.68157765392030    8.27643529299384
H         2.14344637927484   11.03877115315827    8.70471571719733
H         2.84410950181299    9.47396992181570    9.09978318300710
H         7.84869585228911    8.97769470992565    7.52058793769939
H         7.37741868669433    8.84847879604824    9.20190034849947
H         8.72616736658584    7.90885593128094    8.60396275837800
H         7.09510756651949    6.38025816820145    5.52600956218079
H         8.26505789119863    5.56469477918751    6.55760878554092
H         6.66884407362619    4.86480138342833    6.36511504053004
H         5.82368106612660    6.21944468067508   10.25546792761086
H         5.63223000768188    4.86391756327185    9.15667953565554
H         7.21942729688976    5.25825121780941    9.79984004408853
Cl        4.67121114677630    3.90585412788147    3.87633955564918
P         4.75804551389438    7.00404624525974    4.05082754991557
O         5.62650859960934    6.85269481644813    2.74516712257801
O         5.44229555683978    8.22916932246736    4.76718294398489
O         3.44404954421662    7.63398873033882    3.43977288224176
Si        6.65559347998461    5.87272066259324    1.88011981490042
Si        6.37032930528146    9.53760108136539    4.35256568041254
Si        2.02456213832615    6.83350536103464    3.09102993575836
C         7.53124509207043    7.15329564408779    0.76357925830700
C         7.89643216263744    5.00143007604272    3.03025561113892
C         5.72761213453169    4.65918055527835    0.74868779188737
C         6.13069170150701   10.72695446025279    5.82091839299184
C         8.18755078287552    8.94737591712483    4.27378445630620
C         5.79872142959579   10.25812650733985    2.68548190854792
C         0.86461138233013    8.28591842253041    2.68525141923149
C         1.39326743318223    5.81781736796142    4.57850738728585
C         2.31592281580903    5.68401032409230    1.60129466074074
H         8.02358225232333    7.94560433257616    1.31752698845632
H         8.28248514076495    6.65677792884884    0.15931392962455
H         6.82799381961317    7.62314570531792    0.08278844011190
H         7.36882671492418    4.39141400358687    3.75845201137501
H         8.54247711977031    4.33939422044324    2.46223230567410
H         8.53441401326242    5.69683800111468    3.57015596345691
H         5.21899954311580    3.89161566515142    1.32230187049166
H         4.99278608650642    5.16146009880542    0.12600757900852
H         6.43352138628079    4.16527075498305    0.08812324425530
H         5.46797286520021   11.54860651320180    5.57216426735747
H         5.70264558027311   10.19425737389944    6.66395934173765
H         7.07501977469317   11.16202184299854    6.13163630202435
H         8.31331946219260    8.14894305022206    3.54818249928859
H         8.84844634491414    9.76044051079443    3.98838277217573
H         8.52850534890954    8.57114167608953    5.23537010641671
H         4.80027233110163   10.68182739359986    2.75777271909526
H         6.46426922418107   11.03885356909051    2.32973700614750
H         5.76348376686843    9.47417013055609    1.93447470282584
H         0.75925843247499    8.97758073375577    3.51394974163484
H         1.22998973780766    8.84811648716446    1.83251564501259
H        -0.11905623432518    7.90914755302400    2.43083126909910
H         1.51355532069641    6.37864971123293    5.50851138077133
H         0.34097806038344    5.56620918431892    4.47745154841935
H         1.93604106633415    4.86306875138289    4.66764372853788
H         2.78345703611684    6.21883561929687    0.77889340039896
H         2.97482070451832    4.86337877260827    1.87779517932017
H         1.38767095183529    5.25767455925287    1.23450903112153

