58
CSD_code = LEBVIA | q = 0 | S = 0 | Stoichiometry = C20H31IrO4P2 | MND = 5
Ir        4.08213383978705    9.62378301635813   11.92606553792358
P         4.66248827852424    7.40478916825957   11.52533635682029
P         2.49513937602802   11.27867361365652   12.34863432928819
O         1.43741041347250   10.62276348850663   13.38905463946308
O         3.73327198107650    6.52667370315122   12.52615542386937
C         2.71725272144048    7.22349624565426   13.17408686515870
O         5.65755109219898   10.95834717692399    9.71245936396248
C         2.65560679803196    8.60484008252489   12.99883368713978
C         5.13739280617746   10.48322347291161   10.63222114940523
O         6.41538465981453   10.39278795511619   13.51619498585831
C         5.36216190634539    9.91131037975411   13.57291577513345
C         2.84479053864520   12.85712730950472   13.25989419812260
H         1.87859710380683   13.33210310887810   13.46418783765429
C         0.63713181105045    8.58757829025779   14.36767145798788
H        -0.17818402885694    9.13513085573368   14.81489874229277
C         1.57645339058667    9.25222657498969   13.59768742898815
C         0.76343436402196    7.21896233711499   14.54232731090450
H         0.04077201954825    6.68751538552754   15.14202565852415
C         1.79823545374031    6.52384544938228   13.93788680665588
H         1.89253835319926    5.45455388961711   14.04757530839977
C         6.33647842277016    6.70647641623955   11.95694315922883
H         6.41493180469825    5.71968195435597   11.48256265235681
C         0.83826883695907   10.55112589279634   10.29602666524258
H         1.67345449729927    9.92462748032232    9.98310318404429
H         0.23812579454583   10.79244660222441    9.42040590983091
H         0.22262839702255    9.97906960537375   10.98925188853875
C         1.35443266065181   11.81958331388360   10.96818309917509
H         1.96851481487529   12.37402650284157   10.25087134405845
C         4.25212034516919    6.51930409806741    9.93510512116782
H         4.30002852754513    5.44800120162300   10.17277646274606
C         5.21484254605035    6.85347501873316    8.80533037818482
H         5.29331395606387    7.93280134192113    8.68368805058549
H         4.85050346660644    6.43134769905248    7.86966708117709
H         6.20569928314193    6.44759281772502    8.99349635946644
C         0.20016524612576   12.68680111914728   11.45632587937637
H        -0.27342803303961   12.22883728940682   12.32310852492959
H        -0.54759350527103   12.78113261000408   10.67004320513631
H         0.53259493135640   13.68728853166849   11.72237768810212
C         3.51810870671638   12.53614359150659   14.58851253783262
H         2.90819040625835   11.84800801607786   15.17070530691134
H         3.66320183407098   13.44592655204172   15.16872647619586
H         4.48903022913912   12.07558620187685   14.42198580011741
C         2.82235641908770    6.88676802462849    9.55362901189431
H         2.13846131154459    6.70099541824861   10.38091247212486
H         2.49016187164204    6.30350033491006    8.69635894548675
H         2.76954103004563    7.94279879934282    9.29231614383261
C         6.45284766861911    6.55230684050729   13.46956462053512
H         6.25276394425427    7.50437240209251   13.96010136572154
H         7.45750174373714    6.22967695251423   13.73724284317271
H         5.74171081489878    5.81912688433206   13.84228867902343
C         7.43250919421923    7.62693286271354   11.42965889409987
H         7.31282636983265    7.83058733053076   10.36855154590607
H         8.41147208128114    7.17686607729200   11.58676383071665
H         7.40493840568510    8.57763472562016   11.95669803145611
C         3.71696672839015   13.76114173585343   12.39947590758710
H         4.63893811329018   13.24430115953271   12.13548338896384
H         3.97594719524688   14.66839492975735   12.94262715788930
H         3.20888106082408   14.04598016140115   11.48021752365218

