89
CSD_code = LEBVIX | q = 0 | S = 0 | Stoichiometry = C18H54Cl2O6P2PdSi6 | MND = 4
Pd        0.00022602982922   -0.00006216110088    0.00015308670788
Cl        1.92170850949422    1.21349202049965    0.03496139571197
P        -0.53248137623455    0.84799305719458    1.97334438331477
O         0.45009469353892    0.20287671985377    3.04410128504112
O        -1.91354519962186    0.49716806500808    2.64081783341226
O        -0.42413309784486    2.38542896065288    2.28090695874860
Si        0.73282694471214   -1.42806470819599    3.19383196041083
Si       -3.46827332978419    1.05860090086916    2.66306002666255
Si        0.71282784496783    3.58243263354369    2.47535135962476
C         1.97528633959464   -1.45803311272907    4.63119943379442
C         1.52461397675568   -2.11560409729679    1.59504328696944
C        -0.89740743468892   -2.34728497947593    3.55035154156879
C        -3.63941123993766    2.01597919689472    4.30184140842752
C        -4.51797717811596   -0.52467437784618    2.59794012544115
C        -3.79501996795272    2.21180543835844    1.18352775071784
C        -0.13810911460148    4.69603551546993    3.76849480860451
C         2.35681776185094    2.88937998187687    3.12370998354446
C         0.86578399570625    4.49192125846381    0.80737013189036
H         2.23785598611811   -2.48242274124034    4.86548196960160
H         1.55693947312266   -1.00981091314174    5.52564780756316
H         2.88944945922424   -0.92507844358877    4.39068239916045
H         2.12315313424493   -3.00029480362154    1.79233510096409
H         2.18813757102035   -1.36683733523045    1.15104571932031
H         0.76450765120281   -2.40067016926169    0.85395709997792
H        -0.73618650316571   -3.40186720706471    3.75141846814937
H        -1.57276538676100   -2.26272077254853    2.70124968435306
H        -1.40625460573428   -1.91581875481090    4.40782505163638
H        -3.38805973378202    1.39067420280848    5.15354669774819
H        -4.65422812588101    2.37277580163018    4.44253070328341
H        -2.97469263035280    2.87487667991079    4.32035449114569
H        -5.57526269905617   -0.28858564237220    2.54769599423763
H        -4.35905031923316   -1.14660709296585    3.47385044288751
H        -4.25990234892342   -1.11565699728961    1.72346001948702
H        -4.66595760811251    2.84107702671296    1.33944377064840
H        -3.96608775412280    1.63850512490757    0.27654383843361
H        -2.93662109022447    2.85781071979021    1.01639477951174
H         0.46183953572637    5.57989089026018    3.95434482916122
H        -0.27133286902935    4.18114139928882    4.71493708719400
H        -1.11664393543749    5.02628240614332    3.43317715000197
H         3.03786817800514    3.67952932514402    3.42415097862655
H         2.84483957661850    2.29881238435504    2.35390796780953
H         2.18976465120854    2.23986674913191    3.97879521691437
H         1.46488979320520    5.39015699743434    0.91406957489813
H        -0.10629400247360    4.78851536528767    0.42054750593842
H         1.34620545575283    3.86260794659341    0.06384233889304
Cl       -1.92174040157171   -1.21299450648381   -0.03424468936751
P         0.53272020474066   -0.84815103493561   -1.97343395404742
O        -0.44996785777903   -0.20281465947095   -3.04391688245137
O         1.91376299857043   -0.49735698663663   -2.64093744326392
O         0.42434548242994   -2.38557969322034   -2.28121238831132
Si       -0.73269504334055    1.42816219082200   -3.19330650226311
Si        3.46843847797376   -1.05898507470022   -2.66286830392338
Si       -0.71291896717236   -3.58222674202626   -2.47602628025385
C        -1.97443247343051    1.45850266103611   -4.63128836993189
C        -1.52522014140564    2.11533613700853   -1.59470669509593
C         0.89761584391889    2.34755253022301   -3.54897313445922
C         3.63931060770834   -2.01751070195727   -4.30099478470038
C         4.51809911015985    0.52435166289736   -2.59898192859179
C         3.79531472298398   -2.21112403041832   -1.18254673747731
C         0.13763321808575   -4.69578100316859   -3.76945551835908
C        -2.35673774376484   -2.88857046819529   -3.12421586403056
C        -0.86635150073869   -4.49229180957448   -0.80840665770295
H        -2.23701574880409    2.48293914271004   -4.86535754736965
H        -1.55551020026491    1.01067918981648   -5.52566470886884
H        -2.88866456359216    0.92533346686618   -4.39151627772985
H        -2.12382758359078    2.99994871569044   -1.79217862372293
H        -2.18880451307920    1.36646068290705   -1.15099754761851
H        -0.76549384540087    2.40047493344806   -0.85325971192084
H         0.73650442888812    3.40231043114614   -3.74924331016999
H         1.57297431109298    2.26226113570445   -2.69993951114956
H         1.40640798678516    1.91669107618781   -4.40678484230534
H         3.38813577952759   -1.39274148938497   -5.15314590957803
H         4.65405437833313   -2.37460435842006   -4.44137848683931
H         2.97441736756925   -2.87628186235902   -4.31895986862221
H         5.57539315495803    0.28821840278180   -2.54920855488800
H         4.35869183418852    1.14594005037226   -3.47505586190786
H         4.26048681116030    1.11564516421475   -1.72457673082699
H         4.66661313197239   -2.84003426739587   -1.33793998467510
H         3.96593784251645   -1.63710448744538   -0.27592994934124
H         2.93720274221509   -2.85745899934566   -1.01515540874232
H        -0.46274306127744   -5.57928871363318   -3.95557901683705
H         0.27121666873581   -4.18073931081654   -4.71576821875933
H         1.11595213744887   -5.02663387597136   -3.43412238175164
H        -3.03801426932044   -3.67842144380194   -3.42491978182955
H        -2.84460493131379   -2.29818403095690   -2.35418367608701
H        -2.18959698949224   -2.23875365735099   -3.97905280445561
H        -1.46538745409791   -5.39052329853653   -0.91561445878448
H         0.10561398432016   -4.78894395291143   -0.42135416385550
H        -1.34705494767075   -3.86324957301619   -0.06483997528323

