56
CSD_code = LEBYUN | q = 0 | S = 0 | Stoichiometry = C13H36N5SiTa | MND = 5
Ta       11.80138570108737   -1.48124615044361    3.22343128329847
Si       10.44318001901614    1.20706470262417    4.90479626470719
N        11.60736208683787    0.49835182345355    3.83742145986861
N        12.28408451991324    1.15888589012672    2.77743074858887
N        10.98401059994052   -1.56275228899343    1.37594880807061
N        13.70202888695346   -2.09107893744549    3.39223471632837
N        10.82297058760444   -2.57616357889076    4.25138182030735
C        10.03843599113261   -3.50776430724168    4.96603406619229
C        14.23660057498833   -3.29049093146522    3.99040529270069
H        14.63837940845175   -3.97434778760977    3.22641190298335
H        13.44029054042226   -3.79694637524415    4.53228923266895
H        15.05246370862346   -3.05921724811468    4.69059860562112
C        10.65134373391497    0.24055822889560    6.53654615921638
H        10.96231223154327   -0.77381050428823    6.30392420334722
H         9.72236874269219    0.20051848495440    7.09457219017724
H        11.40147633829861    0.68513745785910    7.18242048472959
C        10.63153865918762    3.07304898464880    5.31316096613772
H        11.59616367759065    3.29664591129190    5.75756665739859
H         9.87004992895650    3.35650030234050    6.03262504247638
H        10.50617088678799    3.71235281619330    4.44478586942539
C        10.66361979037027   -3.80252007842369    6.34489125847777
H        11.68920028214357   -4.13809696604067    6.21741558758398
H        10.09674921909048   -4.57389417719699    6.86049247889357
H        10.66864085197048   -2.90157959440156    6.95082491891672
C        11.37716116715122    1.85132317261979    1.87458401307660
H        10.58876677544632    1.15930345253985    1.57904484548363
H        11.92942383525684    2.16935043016030    0.98822181375343
H        10.91768810875017    2.73161358968543    2.34240451011667
C         9.96684042722010   -4.82308189398430    4.16172657958768
H         9.53748306061077   -4.62803289392160    3.18323294866345
H         9.35861566441744   -5.55861724419870    4.68230877001127
H        10.97009496547851   -5.21689109015254    4.02354470366576
C        13.32153548763420    2.05428765573354    3.27134740594721
H        12.90511653603081    2.95601084907019    3.73538304372670
H        13.96497818071084    2.34944653552581    2.43982716195174
H        13.91493006335114    1.52126484373486    4.01366349354277
C        14.72491139842390   -1.38987292338748    2.65726222326583
H        15.58866435538441   -1.15906326174143    3.29967217487934
H        14.33638573552476   -0.44860431150806    2.26795639469919
H        15.10121550121528   -1.99041015571907    1.81177824907232
C         8.67664483954144    0.94263236652006    4.19419066571706
H         8.42116545127280    1.67261464582124    3.43070022009959
H         7.91852861373194    1.00621978412806    4.96824864560719
H         8.61752698433306   -0.04680826568905    3.74575882060339
C        11.80979858979126   -1.22049847664973    0.24452968351213
H        12.20604983310420   -2.12067067953178   -0.25628907382495
H        12.65029678117358   -0.60165608919008    0.56000976526506
H        11.23907121548144   -0.65626688639637   -0.50829041287424
C         8.61414424603832   -2.95272233006076    5.16713109864223
H         8.66675725510527   -2.00861540001956    5.70092527814491
H         8.00632946267080   -3.65569803021103    5.73152607119058
H         8.15038330192576   -2.77676395221167    4.20015056484299
C         9.80615562031406   -2.27737488970100    0.94596709227844
H         9.21305373999610   -1.67541009144846    0.24211700342833
H         9.19225480685783   -2.50301078135638    1.81636301179175
H        10.06690102852854   -3.22005335503566    0.43869321600961

