41
CSD_code = LEBZUO | q = 0 | S = 0 | Stoichiometry = C16H15ClN7ReS | MND = 6
Re        3.93863717760986    7.18248450705789    1.07570830097365
S         2.39687127976136    5.66792106719735   -0.11246856615270
Cl        5.93042042656788    8.25571623343902    1.80644213837255
N         3.27576089285559    6.89380267025997    2.69644930710434
N         2.72258142706398    6.87944750046959    3.75392099027183
N         1.50932846069851    8.83287809731035    3.55789827305779
N         2.87765339331503    8.81771323448553    0.92568949720304
N         2.90037607593980    9.57436323679498   -0.10816458615679
N         4.39527979246044    7.95618107165166   -0.80105934154358
N         5.15473600449525    5.24615194308791    0.93389836294162
C         1.85036597855364    7.77187373914211    4.30404509336415
C         1.35231889818063    7.55474174723723    5.59380570740894
H         1.66169069415184    6.68308249887015    6.14674206624085
C         0.47484052841841    8.48189519102683    6.11516450023664
H         0.06861903394017    8.35225004439975    7.10768825503792
C         0.12056056285877    9.58590193810990    5.34695227207885
H        -0.56161178722347   10.33104407021255    5.72313584144910
H         2.23311292187557    9.17080279791586    1.65570341097728
C         0.66811697811452    9.70634561347351    4.07972679202511
H         0.42291755229336   10.54681904864498    3.44302924750520
C         3.73892771228715    9.11631879362942   -1.06989748613072
C         3.91048941818521    9.80252413889784   -2.28061205888792
H         3.35903784449058   10.71456398686018   -2.43412566683844
C         4.77294426335785    9.28688055319435   -3.21574837780381
H         4.93134173537721    9.78940808600931   -4.15774675111938
C         5.44759054126233    8.09778093937047   -2.93076812636893
H         6.13488196774355    7.66492495285986   -3.63946188268781
C         5.22578069287009    7.47677015128106   -1.72124118521764
H         5.73722626603007    6.55333965488037   -1.47537868498340
C         2.99649684586544    4.16947257811127    0.75423288110005
H         2.65356741616866    4.24236637383041    1.79051378997794
H         2.54248426778334    3.30247028696588    0.27638565035831
C         4.48542379938110    4.10742654027925    0.71042280773635
C         5.15361653329944    2.91946662345204    0.43436717255160
H         4.58532889388159    2.02174757016803    0.24832660126530
C         6.53637150621037    2.90705868746935    0.39852021036502
H         7.07092568051715    1.99576002040887    0.17622047736520
C         7.21688315162369    4.08778501069129    0.65169862875085
H         8.29387241625538    4.12922315898470    0.64132125403141
C         6.48484379165786    5.23113612812561    0.91450640809813
H         6.96908896381600    6.17775951373632    1.12365677604525

