42
CSD_code = LEBZOI | q = 1 | S = 0 | Stoichiometry = C14H18N6ReS3(1+) | MND = 6
Re        4.71859356576273    5.56593127023147    3.61890918943983
S         6.72853927305631    4.26751600707026    4.04493816449004
S         6.41037340106368    6.80123995288997    2.18714331655226
S         3.28912615874908    7.22743044529181    2.42792706065475
N         4.78766496965844    6.55802498170377    5.07833441125945
N         4.71403068931331    7.19293588611010    6.12687656184931
N         3.81803386354355    8.42439567548765    7.84199584407120
N         3.39115596325842    4.32400595183324    4.44194682270803
N         2.90307225956891    3.34757805204761    3.78888900533554
N         4.22401721733880    4.23027322668992    2.11506031754981
H         4.75630989280671    8.43439220141145    8.22710820340110
H         3.04335343070988    4.32135899055255    5.40867222372306
C         3.63676204878010    7.76829317742330    6.66275337722985
C         2.33456498268525    7.72905848477965    6.10982651635325
H         2.20418096699661    7.21625366039554    5.16631878143348
C         1.30667589513102    8.35254011308748    6.76061682426907
H         0.31224528875085    8.33807398810798    6.34374672805287
C         1.54329672425398    9.02042264175516    7.98036901120555
H         0.73968909161287    9.51237178006890    8.50060184869645
C         2.80757441425732    9.03539509411619    8.49353432162943
H         3.05323179005925    9.52729499979659    9.42165566894441
C         3.33935021581823    3.27623072312733    2.50786136531250
C         2.88903170146833    2.26280195075768    1.65166665782702
H         2.18998185573776    1.54025208345375    2.03684968985861
C         3.35939865487608    2.23619941149868    0.36064399515990
H         3.03980563763559    1.47138370722021   -0.32909328351103
C         4.25991410553249    3.22245006733832   -0.04467617332332
H         4.64932960000569    3.23838174688518   -1.04926828750623
C         4.65689454195817    4.18778945380548    0.85577780374100
H         5.35312917297834    4.96031949530449    0.55497597027209
C         7.81929993972639    5.70652278414758    4.33124449582850
H         7.39016468961699    6.28631085582339    5.15161345163376
H         8.78327926743638    5.30173063860691    4.64111814811447
C         7.98998842598545    6.55637656366984    3.08156831263201
H         8.62923345560401    6.04644576494653    2.36004497808456
H         8.40644470041968    7.53772190875154    3.30559357988454
C         4.42164094990346    8.63874557580371    2.09685673459286
H         4.45495094399972    8.73863429031867    1.01142588510619
H         3.94637577710607    9.52335286323717    2.52140302340466
C         5.82408818931510    8.47739926497894    2.65613572917419
H         5.84060151103149    8.55455426063875    3.74399518073395
H         6.50040477646395    9.21051000875841    2.21373854416447

