39
CSD_code = LECBED | q = 0 | S = 0 | Stoichiometry = C18H16N2NiS2 | MND = 4
Ni        1.96877399877811   18.40934226788856   17.11552789974375
S         2.80277921197700   20.26950541864624   17.88296165818299
S         1.70216331447353   17.69886269052206   19.15721311241269
N         3.32386255287466   19.28523769469625   14.62648931387309
N        -0.00569679926097   16.27521232399297   16.52679514383957
C         2.82939481915685   20.08841933578379   19.61322254079468
C         2.23055520474081   19.00569869412758   20.17706389709306
C         3.53300778395559   21.13921620038719   20.34705350337120
C         4.33803768712998   20.82453503598409   21.44243553493991
H         4.43972497720986   19.79454366065884   21.75147951678069
C         5.01065062734242   21.82045098065839   22.12221856082189
H         5.62961856520832   21.56434014768028   22.97010957907686
C         4.90178188975638   23.14142149828279   21.71728611298785
H         5.42828841469944   23.91786914336308   22.25305538108526
C         4.12155007860291   23.46017400758356   20.61878410487608
H         4.03809752100754   24.48735378132893   20.29353017847633
C         3.44406289537631   22.46779893337818   19.93651267942587
H         2.83134594245262   22.71428916881698   19.08119054603707
C         1.96074676533814   18.84065443483099   21.60458314366275
C         2.08769086880455   17.59111450466714   22.20786010238114
H         2.41032333356000   16.74932044260289   21.61198296499481
C         1.81412293654071   17.43002185724780   23.55273714912656
H         1.92275756160776   16.45646829685743   24.00908760936563
C         1.40496690974742   18.51153378123293   24.31425717361842
H         1.19415181814283   18.38624624890296   25.36639251683364
C         1.25948486076061   19.75473037490495   23.71914062657053
H         0.92731238884064   20.59922145781352   24.30575354821868
C         1.52899403391576   19.92076395204896   22.37526178375146
H         1.39779588586451   20.88779572454053   21.91227900016310
C         2.78692495441832   18.82972671038767   15.55381687303990
C         3.98533684594379   19.85594785277582   13.54609161126967
H         5.04333193121426   19.58972047360732   13.58585892551416
H         3.88286848185085   20.94140754719190   13.59619343386501
H         3.54973702447609   19.48855647466792   12.61523911279966
C         0.74263929153036   17.15903237399081   16.64731349188348
C        -0.90341658973995   15.21960697312002   16.42462730713928
H        -0.41768004934146   14.37586009424211   15.93080464897337
H        -1.77065225465427   15.53408961784462   15.84100150905819
H        -1.22363568430212   14.92270982274283   17.42478820394577

