52
CSD_code = LECBUQ | q = 1 | S = 0 | Stoichiometry = C14H29O8Pt(1+) | MND = 6
C         5.96890606401463   -0.52866176918023    3.99531217003425
H         5.68347869289941   -1.34666305385766    4.66513456394464
C         4.84813377992253    0.50090980314153    3.68088338471740
H         3.93741313349722    0.35617454839720    4.26908928556416
C         5.49580400796003    1.86027630809489    4.00410726970223
H         5.31271133087189    2.57523285591270    3.19461083530820
C         6.99250515914054    1.48716660690065    4.09929601420086
H         7.37816951212698    1.48812973149424    3.06657426143797
C         7.89369669635044    2.37775978419308    4.96579110978654
H         7.41453530605401    2.56763836476766    5.93518941548772
C         9.22636331002506    1.66075609856395    5.23373718586840
H         9.04038312309404    0.79147789617151    5.86807560490178
H         9.90064572873082    2.35345976251724    5.74302220863971
C         5.02441362466684    3.68100993015767    5.42246959658896
C         4.22726230636390    4.11019775904222    6.60722803703147
H         4.69565522762660    4.96705770833702    7.08354034289598
H         4.10845535502240    3.28682484808234    7.30467740303016
H         3.23979224315738    4.41532169318605    6.26132589896046
C         5.29124571324875   -0.77845905939134    1.82101952403459
C         5.86506993276085   -0.47872574902080    0.44238852470599
H         5.05131761881231   -0.27635006030242   -0.24551074443256
H         6.43375710936037   -1.33554309140154    0.09700800241450
H         6.51492931711855    0.39078740995725    0.48874206243397
C         4.34478352603020   -1.97889238406849    1.79010126887443
H         3.52691786931473   -1.77331716244160    1.10673668221015
H         3.93817206954236   -2.16575159023165    2.78088955898877
H         4.88632089657015   -2.85894070954294    1.45760069365189
C         9.98779606353769    5.19782575254173    2.00815996266470
H        10.74373758360486    5.80890391483542    2.50335537967818
H         8.99570090529444    5.59552363041525    2.23096045753049
H        10.15835211218354    5.23373004700280    0.93548555942398
C         9.02142578939747    2.63308673189672    1.18047804415906
H         7.98744998392416    2.97232971862233    1.26704331874258
H         9.06679849673744    1.54222983603311    1.19904312422683
H         9.41943936034867    2.98114452391246    0.23060275962065
C        11.81341373100413    2.91689246815644    1.92266481103575
H        12.44473284553697    3.80377953736671    1.88178674695634
H        11.72539854880399    2.50200390302461    0.92183327540325
H        12.25620873615361    2.17033918683147    2.58711346368683
O         6.35657467539138   -0.99749841044637    2.73692966100684
O         4.61220594776242    0.37797733058434    2.31075662397005
O         4.93805351388617    2.36320001383839    5.20781955861224
O         8.16687721591385    3.59542549427114    4.30487748178234
H         7.33057347146244    4.10872347772101    4.24529553417620
O         9.87835985693786    1.27636101550387    4.04020010431521
H         9.43007896873980    0.49577099442781    3.68793839257479
O         7.01029012804533    0.16334635449440    4.60739472319962
O         5.68067603012341    4.41348883053529    4.71436342601944
O        11.17427991547071    4.14850450806083    4.77450077623139
H        12.13057644559549    4.23318324670927    4.70907216361497
H        10.81999244168165    4.98493919209512    5.09215792679281
Pt       10.02896857686291    3.32731222221962    2.80472656337823

