36
CSD_code = LECBEB | q = 0 | S = 0 | Stoichiometry = C12H10Cl3N6O4Re | MND = 6
Re        4.27407377669021    6.02220608315804    1.99708829904304
Cl        5.25766275329078    8.01583299887882    2.77776073468485
Cl        6.34785918147955    5.46337648642891    1.13690101958603
Cl        3.60340108738879    3.78740959224751    1.54255939306121
O         7.64287510427356    3.16681922992987    7.12184749965488
O         8.31969101866970    3.48973657971220    5.01812432608278
H         9.13258159131221    3.06804426257354    5.33775154817733
O         5.94773413329532    6.03642191007057   -6.18948383218764
O         4.09164425738967    7.16796967737341   -6.71264939323613
H         4.42798391500266    7.06503905107244   -7.61706624100608
N         4.82871039945973    5.23344464777880    3.90705987537585
N         2.67899596498219    5.95668254694053    4.37610249322898
N         2.71092852468208    6.29964948258585    3.14154694822358
H         1.81790460186308    6.71918967595883    2.86977601503663
N         2.93445177403006    7.43106065365811   -2.82539834996905
H         2.07254447907319    7.90256570818630   -2.57589514336918
N         3.17002376954793    7.05421361489289   -0.57979929440779
N         3.62766922158005    6.66021261637820    0.48691182200711
C         3.82081181160572    5.38000891844210    4.81023143694368
C         3.94680971678389    4.94522998941750    6.13938543485731
H         3.11366487934830    5.08972424684497    6.80613736440948
C         5.12051474092386    4.35650970162892    6.53082442832023
H         5.27693989124457    4.00266146204733    7.53837100598519
C         6.15447757264341    4.20667536368103    5.59286497976101
C         5.95516543269515    4.66113450604102    4.29563827271451
H         6.73364756369293    4.55855237524372    3.54911017987256
C         7.42347437299445    3.57265266349465    6.00776148599140
C         3.66403587845428    6.89775748450975   -1.79317056035972
C         4.88069903393151    6.22770925354449   -2.10866445140530
H         5.45249753419866    5.81133151842918   -1.29028247283296
C         5.27859042059004    6.13290589010899   -3.40441116879116
H         6.19230350331608    5.63070964600598   -3.68175378171223
C         4.48527243560304    6.70389422648638   -4.44141781754009
C         3.32095427201538    7.34426115561612   -4.10721577475312
H         2.68507554293225    7.79292588453243   -4.85483404437903
C         4.93662984301705    6.58788089609925   -5.84611223706566

