98
CSD_code = LECCEE | q = 0 | S = 0 | Stoichiometry = C43H49N3NiS2 | MND = 4
Ni        5.20315342611077   10.73779600241013    5.70875881079705
S         4.59085969124485   10.90680457007523    7.75333251457385
S         5.93969264859109   12.81803795968885    5.82417377005008
N         4.60619862894045    7.90316378977083    6.66263867903402
N         3.82656376171491    8.30202795252535    4.70739227648325
N         5.98326901396642   11.31104366304360    2.92653790833477
C         5.03009217114775   12.50072653770417    8.32256055733147
C         5.64220197901019   13.34894336937142    7.47108839532616
C         4.62587738691521   12.78383468675766    9.69751635735225
C         4.78600373297254   11.81121769634600   10.68334288636588
H         5.22982819848193   10.86146293435883   10.41920068262332
C         4.39216000212682   12.06009737732841   11.98381793601321
H         4.52850512608917   11.29933524939095   12.73998110688704
C         3.82824172901690   13.27902290539907   12.32074583197355
H         3.52171836282014   13.47398234504836   13.33854465277886
C         3.65249920580719   14.24640110651148   11.34392857951807
H         3.20301053293789   15.19589152398311   11.59882888870915
C         4.04134738935665   14.00253662626962   10.04167434273553
H         3.89095110660800   14.75414033465047    9.28013568829009
C         6.15512324150142   14.67635920593638    7.79844824146520
C         6.02262986483315   15.72644224199340    6.89188616473647
H         5.52966357810302   15.54561079339998    5.94736923786343
C         6.50645180618961   16.98385343599536    7.19703826140477
H         6.38966229924763   17.79064950326173    6.48684098251640
C         7.13741921922229   17.21274734260806    8.40816262054072
H         7.51440456011464   18.19682648764842    8.64757591735860
C         7.29143731766661   16.17010341789877    9.30802404085258
H         7.79550035490490   16.33885467241178   10.24920827628294
C         6.81124855818290   14.91112470577522    9.00713939761579
H         6.94614711919135   14.09819425411468    9.70591637821798
C         4.54648302496563    8.85925476621238    5.70890609167741
C         3.93615630404022    6.77700210288549    6.26285021664589
H         3.87952309915909    5.90270025587112    6.87731188259198
C         3.44474539561151    7.02569378357213    5.02923447461285
H         2.86248811626560    6.42184781135759    4.36400692715855
C         5.27393793051270    7.97256976952815    7.91727835968130
C         4.51595840973971    7.95536774642662    9.09344840568274
C         5.19155877543386    8.00966819790003   10.30442004644276
H         4.63123641497242    8.00513876785619   11.22635690715318
C         6.57012705201964    8.08863306381100   10.34875692932336
H         7.07658356664293    8.15181293829199   11.30074929811297
C         7.30102076425508    8.08821670569701    9.17754046067400
H         8.37693690835984    8.15012685404935    9.22466371251886
C         6.67080870683446    8.01151367097738    7.94254299027265
C         3.00576522780655    7.89344200029886    9.08534767602951
H         2.64659048977556    7.97381491265239    8.05543748299195
C         2.39502345191435    9.05827012849130    9.86684517745064
H         1.31136424179502    9.03798080993356    9.77216635154531
H         2.76166452765739   10.00237771345932    9.47338652474520
H         2.64555869297327    9.00545842466628   10.92257090107972
C         2.52982748146920    6.55596454718931    9.66108759405627
H         1.44522043243042    6.49128336071914    9.60892074820187
H         2.82920895347445    6.45949535694603   10.70175082519407
H         2.95124893374427    5.71736723981636    9.10961117684695
C         7.49455822357171    7.99892880038293    6.67561970158763
H         6.85181326934173    7.73001581949841    5.83042215246656
C         8.04688689448177    9.40174893492185    6.41650016592696
H         8.63791353507668    9.42002099668043    5.50314268609079
H         8.66657822234363    9.73518837605326    7.24516032669730
H         7.20681229234792   10.11761948257778    6.30709811740520
C         8.62299467068126    6.96726320414917    6.73936531916276
H         9.10494801120784    6.89036202092311    5.76689081734096
H         8.23268797062864    5.98800193372488    7.01005916607768
H         9.37903000574530    7.24967764126944    7.46662007395149
C         3.57728036625526    8.88994624254656    3.43821958052638
C         2.57202881236582    9.85136639780770    3.30881397594309
C         2.37932700278261   10.42829379515758    2.06012056586488
H         1.62321868898086   11.18675866608102    1.93330773597162
C         3.14428180229424   10.04421724235502    0.97634336017139
H         2.97958307155731   10.50329758950931    0.01195190113288
C         4.11287431819407    9.06831634709650    1.11762240565980
H         4.69654211468749    8.77097248117020    0.25968823388191
C         4.34676032647506    8.47028044373582    2.34830727680468
C         1.72655437609736   10.27130244866079    4.48659714253140
H         1.89517628001767    9.57346587035874    5.31295730719960
C         0.23387300428659   10.24469215312331    4.15141885993921
H        -0.34635999913089   10.41723731326942    5.05482431181888
H        -0.05060010004691    9.27906928151687    3.73730815012868
H        -0.02517163856381   11.01814382718588    3.43331782596131
C         2.16018643227195   11.66095925251707    4.95554293432856
H         1.57693916435484   11.96884860352565    5.81984764070497
H         2.04093043728270   12.39731533786400    4.16420773708288
H         3.22676292046765   11.63568101373207    5.24947964592452
C         5.41271162228589    7.40592584450761    2.48180180103082
H         5.38546105616274    6.99056888890922    3.49298380114316
C         6.80520306894828    8.00491784426563    2.27265457294570
H         7.56068986192385    7.22771176714543    2.36614209527623
H         6.99836772664512    8.76950212388470    3.02192930821047
H         6.89145390047072    8.45110727473783    1.28487227894647
C         5.16069213950679    6.25502014943345    1.50416880311487
H         5.86976657747248    5.45078438760667    1.68704314026304
H         5.27597863843114    6.58097571522457    0.47394814351155
H         4.15381193447538    5.86143584105448    1.62781962420069
C         5.67425234622615   10.91007539352329    3.97525436186468
C         6.36870055046111   11.85223657502745    1.70543632608246
H         5.58299713236960   11.67515371024314    0.96853554305221
H         7.29575566962501   11.37922569482112    1.37475584990240
H         6.53014838351157   12.92523365159831    1.82459868753890

