79
CSD_code = LECCAA | q = 0 | S = 0 | Stoichiometry = C36H38N2NiS2 | MND = 4
Ni        7.94788221206278   11.88604165529604    5.25590602132282
S         8.92401495616729   10.63427773523752    3.85718588753775
S         8.10801920792875   10.35506880239758    6.70797168600775
N         7.53503927569706   13.24119817196522    3.97153951721663
N         7.27564871674876   13.18402420053858    6.48821834250494
C         9.79453668515796    8.06114555738146    3.80255319143378
C         9.36113132780105    6.74221124028826    3.94495515163204
H         8.62193662918070    6.50254152580888    4.69488543323801
C         9.86392270676710    5.75052112492554    3.12644445268673
H         9.52138934262991    4.73295384627023    3.24799308743559
C        10.79678522761867    6.05573089672777    2.14797664908205
H        11.18904457997359    5.27643797999400    1.51097540105292
C        11.21612264160142    7.36538513533932    1.98520559429051
H        11.93644049623027    7.61155461921664    1.21825449331779
C        10.71702574240308    8.36171041195417    2.80192602547755
H        11.04187502425135    9.38439533114585    2.67660085603366
C         9.25499382654287    9.12169138497509    4.64903523492331
C         8.93906122554407    9.01754163281522    5.96959008363695
C         9.28261161680124    7.90874782583231    6.85554440273323
C        10.51510986723407    7.26286084812987    6.74805931917266
H        11.22132503958434    7.58458484071882    5.99706064150547
C        10.83636284758929    6.22644991206424    7.60180731391035
H        11.79315455642835    5.73339852740383    7.50695799340097
C         9.94270266436747    5.82306469074878    8.58132369224156
H        10.19713107460829    5.01026777057050    9.24585317592141
C         8.72678029134176    6.47312809830955    8.70968585843849
H         8.02945935201553    6.16976573596241    9.47737678558389
C         8.39961442861717    7.51031075127810    7.85760896082443
H         7.45198643656771    8.01963106417082    7.95603337004363
C         6.56207329325342   15.50036154035719    3.69282075211206
H         5.51649228575622   15.71995414978833    3.90573528661465
H         6.67314483051820   15.30492682709969    2.62897815615832
H         7.14517649528383   16.38400608765730    3.95162965501043
C         7.01691209864539   14.32198328862175    4.49445205970032
C         6.89331390714327   14.29919921119618    5.92224945134126
C         6.38196511296819   15.48495704896185    6.67765482820908
H         6.97779763897756   16.36637695192851    6.44341062795630
H         6.42482075473539   15.30347435633433    7.74885082016451
H         5.35071360122436   15.69848849468654    6.39713368702648
C         7.70379126455644   13.11131410845041    2.58068073647531
C         8.84876244882012   13.62123767878613    1.96326113523353
C         9.00002568063150   13.44661257199683    0.59722328337828
H         9.88505068973090   13.83721765458175    0.11500138131329
C         8.05108982873049   12.77371357778484   -0.15825906921536
C         6.93809191154366   12.24586173557836    0.48358288755238
H         6.20629596109137   11.69508695569745   -0.09015031706537
C         6.75094667512695   12.39699099609731    1.84589463423394
C         9.89521856401132   14.30202065202289    2.79138105517278
H        10.82002942250867   14.40938893465452    2.23122627853894
H        10.08947391075690   13.71210268162510    3.68979739656655
H         9.56434359501732   15.29226054652114    3.10631129850934
C         8.23681384465763   12.57752813173357   -1.63245946549597
H         7.29809771524055   12.72512285800417   -2.16303731148426
H         8.57691908761570   11.56111658353851   -1.83184532432051
H         8.97773356115201   13.26818216273459   -2.02754880625393
C         5.57872747726693   11.79769156732974    2.55936047387493
H         5.07518019704435   11.06549719346733    1.93457144764309
H         4.86068375451181   12.56694356655951    2.84697281436875
H         5.92592337420320   11.30555005130027    3.47855073197004
C         7.23504359770265   13.02373303000337    7.88560533257206
C         6.05611634895193   12.60582573462499    8.51003988816843
C         6.06122115087776   12.42483789137193    9.88254119641498
H         5.15415918951111   12.09881429234395   10.37173441824679
C         7.20511222806147   12.63806204559938   10.64023670099215
C         8.37203834598901   13.01947903001957    9.99348991606013
H         9.27730271201806   13.16084708081381   10.56666056731422
C         8.40910237289601   13.20900217677402    8.62252824648191
C         4.84019921696790   12.32452352581852    7.68137125657102
H         4.09933539053725   11.77732451308355    8.25779082246437
H         5.12310157086907   11.73048256087314    6.80969278018742
H         4.38636310614611   13.24906311107667    7.32305807911654
C         7.17418164908501   12.45808742904135   12.12785712730363
H         8.17377238025437   12.28532247427840   12.51867094589372
H         6.53878854887972   11.61871723617173   12.40154387605853
H         6.77212793740517   13.35273833160488   12.60526790867891
C         9.67135168327614   13.57502735489690    7.90484861233500
H        10.53888999544828   13.42464745404897    8.54115988620253
H         9.64967488029466   14.61670369177185    7.58136070983890
H         9.77340071265596   12.94915155322773    7.00698252119686

