68
CSD_code = LECFIL | q = 0 | S = 0 | Stoichiometry = C23H39CoO3P2 | MND = 4
Co        2.70811887211467    2.44258582496131    3.05714582620520
P         3.81105585874626    4.31091596755115    3.31103352812090
P         1.95298380799600    0.41781254383456    3.37564304594750
O         4.76413037722318    4.12047253150561    4.60984463530396
C         3.65865311320425    2.01508446710422    4.66315761887806
C         1.84121928443207    2.83234885570155    1.60091368255032
O         2.58831408078635   -0.10619348584980    4.77320969687723
C         5.12763254401440    4.70848239360691    2.02782720825403
C         4.16528174319506    0.47098144126179    6.48565013617311
H         3.99653709588284   -0.48547579913121    6.95689613924626
C         4.56486121886052    2.90002161748584    5.24496921339720
C         5.26202476114329    2.61071223268278    6.40572430455041
H         5.95228140954701    3.33268777729319    6.81517154706245
C         2.81594428647092    5.81096132961856    3.85691523702877
C         3.48799430431829    0.79951084643960    5.32358477492403
C         0.12772318035035    0.23504054992402    3.79018953413920
C         5.05469640217153    1.38757359288203    7.02221732304162
H         5.59054395705956    1.14674073974639    7.92773244995927
C         2.59613080056681   -0.90927389584203    2.20765866130920
O         1.26215610385234    3.09250044445833    0.63423593473909
C         2.22503100210768   -2.32341531864871    2.63678039205308
H         2.39048030799533   -2.45315170304932    3.70443687100884
H         2.84363322782684   -3.04522111814989    2.10372612123889
H         1.18455285771975   -2.54276722127037    2.40904991716596
C        -0.12888119676174    1.49689330882702    4.62136504323475
H         0.48148928819311    1.48807334893543    5.52440095929037
H        -1.17559545836573    1.56355103520205    4.91566308315540
H         0.12590095005525    2.38626593947209    4.03794026335990
C         2.13862151704548   -0.62571058080705    0.78134756852644
H         1.07050059302404   -0.78146179777604    0.66174381637607
H         2.65671023226068   -1.28709120027091    0.08758997138387
H         2.36884873103950    0.40295643261384    0.51002597667108
C         4.11388408710889   -0.71673322312731    2.28637631535639
H         4.36456068847237    0.33533570295980    2.12264306169841
H         4.61770110156369   -1.31477532888826    1.52829772583584
H         4.49325142665444   -1.01038878203585    3.26347325139603
C         5.65809849666741    3.31220160338601    1.68463879026569
H         6.09434185205615    2.84353533797343    2.56680914591507
H         6.42315122581894    3.36525496610703    0.91096876915984
H         4.84093750997178    2.68144162294031    1.32323370336395
C         3.68393024095986    6.99886052709185    4.25355230388064
H         4.51204147614198    6.67320240387686    4.87985007977975
H         3.09005451775719    7.71831175234387    4.81700836094311
H         4.07953932516652    7.50624302679096    3.37682372890260
C        -0.72527794540028    0.27515959148352    2.52818244007191
H        -0.39666264794755    1.07646005838487    1.86913096675002
H        -1.76800634387603    0.45344029724245    2.78935851275366
H        -0.67340797160787   -0.66738486696272    1.98814140501543
C        -0.19421739889886   -0.99722402310548    4.62972296411036
H        -0.14659914209176   -1.90838516252989    4.04097867177784
H        -1.20321536798410   -0.90822487594004    5.03174433040011
H         0.49805133818317   -1.08542791490341    5.46354996517231
C         2.05779741438940    5.28138553408810    5.07829454228168
H         1.55404126634607    4.34372616631928    4.82582213583051
H         1.30804753955268    5.99959909636864    5.40727628596092
H         2.73824212896329    5.09158485045246    5.90643386958308
C         6.27055610682426    5.56598372667435    2.56189328872766
H         5.96638073361571    6.59878878049280    2.70286345263461
H         7.09671019987331    5.55191524589225    1.85130856049559
H         6.63117317862034    5.17718185789279    3.51115245749047
C         1.80610754454231    6.19825841501318    2.78253381406787
H         2.29074304268383    6.61362512132433    1.90386977637846
H         1.11746765685678    6.94634098102758    3.17416053660452
H         1.22824486731455    5.32772907272969    2.47772403120065
C         4.50740406148021    5.33579596856685    0.78538517009526
H         3.60851403250476    4.79670524305114    0.49233969776482
H         5.21418114583798    5.29759041664064   -0.04303809072549
H         4.25145735780528    6.37867571006169    0.95720549787920

