79
CSD_code = LECFAB | q = 0 | S = 0 | Stoichiometry = C26H46IrNO3P2 | MND = 6
Ir        3.00169536899572    4.28977289082512    3.27759468033244
H         4.35782051377138    4.99461374950653    3.15699129031444
P         2.25732964647558    5.47874892807156    1.34926165434420
P         4.20169529307004    2.75800458912065    4.66250490700965
C         3.59155729004816    2.94374350112799    1.79518900269084
C         3.00017871967707    2.97574885788480    0.53172686739001
C         3.33903401000831    2.03366691062754   -0.43107812742657
H         2.86568756811700    2.06661348906825   -1.40320181399291
C         4.27543225939355    1.05564196224525   -0.15216683933854
H         4.53106864206930    0.32023816547788   -0.90030502218432
C         4.89208369055874    1.03324264769176    1.08515544894416
H         5.64089460312733    0.28323140314490    1.30070157136380
C         4.55951021088338    1.97175821618200    2.05290700592386
C         1.98301301634658    4.04123254267976    0.22264519378062
H         0.98020461263487    3.65398440990111    0.43609407913096
H         2.01234131105209    4.33382526975537   -0.83031273210872
C         5.28103835539387    1.99558349940382    3.37042384284005
H         6.14977078682063    2.65374017182541    3.26496641602787
H         5.63576105917825    1.00543052911002    3.66475230503035
C         3.60101073937037    6.48833641313731    0.45020578736000
C         4.75069623487499    5.53321328768680    0.12052109289333
H         4.46321833319420    4.80022108740145   -0.62878956457595
H         5.08390421158798    5.00450081256315    1.00844883257604
H         5.59168914168481    6.10367127888460   -0.27133566330646
C         4.12332579891500    7.56379002795440    1.40366424370196
H         5.01419551690836    8.02731874334408    0.98247985741746
H         4.38851952815447    7.11861823288622    2.35953317429979
H         3.38993119380395    8.34509629414436    1.57685764347066
C         3.14803478600032    7.13541521349556   -0.85788586447525
H         2.43927921453145    7.94176801130034   -0.69366436225813
H         2.71573843306002    6.40566279406974   -1.53913097293461
H         4.01953351143754    7.56600379284953   -1.35084160579741
C         0.58884393531314    6.39695033116902    1.24155702775510
C        -0.39145919387136    5.67141646506440    2.16581315408212
H        -0.04983587597506    5.64372496018501    3.19881200260896
H        -0.57783287706066    4.65430226923466    1.82820877830399
H        -1.34805468429598    6.19278581885718    2.15707330534879
C         0.74111564279795    7.83368957894821    1.74115655334679
H        -0.24405481213292    8.26516291940562    1.91442814467996
H         1.25432190398829    8.46287769569076    1.01867044205793
H         1.28632558608595    7.86129341262591    2.68181144527782
C        -0.02467380127088    6.39656812461489   -0.16130257249395
H        -0.23391697763362    5.38686032662989   -0.50503956300608
H         0.59699051073038    6.89283633913858   -0.89700491044436
H        -0.97416923324222    6.92991987565692   -0.11885175845703
C         3.24398688395167    1.25267958435369    5.32257642992041
C         2.72490860965432    0.46940659341968    4.11184249754681
H         3.51646662972154   -0.10862312271687    3.63998357290871
H         2.29563039335585    1.12193434338320    3.35715473733316
H         1.94959894934337   -0.22376572690904    4.43568055447891
C         4.07000275535679    0.28474734470439    6.16882477768152
H         4.34837069991350    0.71689920044826    7.12497179191037
H         4.96249082688100   -0.05000930915878    5.64411198728634
H         3.46241326432155   -0.59667139491452    6.37444046551243
C         2.05975838163964    1.75374963465483    6.14817409196998
H         1.51555365121415    0.90895523852841    6.56865355047512
H         1.36585521859428    2.32041200373390    5.53426403882603
H         2.37344219030145    2.39896470586646    6.96353767103402
C         5.47899701227906    3.34316104760391    5.95003635402136
C         6.64560426645418    2.37069654682996    6.14840859314116
H         7.32416651728666    2.79976035779286    6.88547729051554
H         7.20921068989009    2.22569270384109    5.23019203507103
H         6.33062734399438    1.40426441921479    6.52238749892139
C         4.78970648803437    3.61638024258068    7.28649027428449
H         5.45157314203477    4.19926574680129    7.92606633903810
H         4.55267361631740    2.69599036584897    7.81345389238833
H         3.86916699559912    4.18043210794616    7.14849936805677
C         6.06980708867045    4.65741779468310    5.43418684657850
H         5.31057086287760    5.43016765576396    5.38015783947030
H         6.50772995534319    4.54110704481171    4.44499593688860
H         6.85229252699755    4.99486556959479    6.11260803172251
N         1.46900456786709    5.30282128661824    5.71739391355970
O         0.28588672247349    5.31360606347928    5.37533257733383
O         1.83215936316411    4.81983632380458    6.78948056233817
C         2.43144138290081    5.83800587659562    4.85386803498466
H         3.29246026198888    6.15483809427026    5.44094469934569
H         1.99852941680214    6.68140920334397    4.31631688864461
O         0.37418197977786    2.78221551437114    3.18265251746463
C         1.33743762040361    3.38336109823691    3.32718996186019

