62
CSD_code = LECFUX | q = 0 | S = 0 | Stoichiometry = C22H35IrO2P2 | MND = 5
Ir        1.83901312647301   10.37295061839912    3.80602409717842
P         0.02779751580789    9.17283480379074    4.89274700872381
C         0.18314138591781   11.43252743891423    3.11442051457608
C        -1.09742593453001   10.62533629918136    5.09460356143483
H        -2.11905508369829   10.33662337341395    5.35273060453230
H        -0.68377136577291   11.22104837963494    5.91721663903029
C        -2.15428329323931   12.06217162579967    3.32326154337852
H        -3.07991988845087   12.03327097721376    3.88310021402759
C        -2.09984629569053   12.73553985705547    2.11623003228560
H        -2.97440125560720   13.24267319038685    1.73564131635264
C        -0.92528314494886   12.72997717018499    1.38618178902870
H        -0.88603482475056   13.22426673467183    0.42402655815591
C        -1.03077458419967   11.41471960349607    3.81479695082056
C         0.20244502202238   12.08596309505985    1.87552535799010
P         2.33207290690439   10.45166641275659    1.45240094756173
O         1.96195965982975   13.14454993452789    5.06757588327945
C         1.46631387470981   12.03690924172335    1.05794507181836
H         2.13258626610201   12.84989063579621    1.36762735316888
H         1.26325144630180   12.13945937561340   -0.01236765131167
O         4.15902897276353    8.54860470971005    4.54031957714124
C         4.10604545068756   10.78583648281008    0.95340384271575
H         4.61282392144642    9.81736938927278    1.05355685355573
C         1.76024956544416    9.36196621888532    0.04083895534252
H         1.93953201881784    9.89683808813827   -0.89874043509169
C         2.52974595083101    8.04533715130358    0.05552219217393
H         3.57253754301129    8.18819673783487   -0.21843648696950
H         2.08826496753497    7.33942335137494   -0.64664784060733
H         2.49513097725289    7.60494172710539    1.05225346347718
C        -1.08868890908476    7.83244426516541    4.20151874047879
H        -1.67071270198237    7.40239468793029    5.02462761829933
C         2.04519522923958   12.06516297183358    4.66851211143556
C         0.21650152819013    8.53932182675223    6.64477293091805
H         0.48422092590822    7.47947614620982    6.54112426858011
C         4.28081480805319   11.29975006878173   -0.47345185361463
H         3.97371174946928   10.56488947378469   -1.21295355074901
H         5.33211968140774   11.52508925369129   -0.64851874947897
H         3.71298915579932   12.21436211318218   -0.62964040382831
C         1.36481945959087    9.26444145832202    7.33836745211019
H         2.29525639097458    9.12505643661931    6.79157599616912
H         1.49739810944611    8.88486340976498    8.35031836182923
H         1.16485715859920   10.33320144327084    7.39746462462630
C        -2.04172488741119    8.38293679713750    3.14642450224929
H        -2.85065354194179    8.94952020777259    3.60091360625745
H        -2.48171855101791    7.56710377535290    2.57423524500213
H        -1.51806154775351    9.04326192848225    2.45879500886448
C        -0.18098390315584    6.74921996987777    3.62565115537632
H         0.43059142574959    7.16066602708304    2.82367183820718
H        -0.76543531020234    5.92063947657048    3.22874341361318
H         0.49140293615356    6.36203820579399    4.39051925669214
C         0.26561498819225    9.10743128536517    0.18242361680236
H         0.07429007163142    8.55237338083699    1.09786069594763
H        -0.10394568307145    8.52045143376068   -0.65746675909985
H        -0.29354213460056   10.04067197330109    0.22421081877832
C         4.75149838019700   11.75104486387735    1.94401542683691
H         4.33405415290341   12.75122224346326    1.84572291070338
H         5.82314317660087   11.81402999910227    1.76247334885060
H         4.59330237768037   11.41348740649465    2.96802783339571
C        -1.05717957156884    8.64949521684252    7.47978275587429
H        -1.27305729082276    9.68834740893368    7.71739395382817
H        -0.92461196465038    8.11246697630022    8.41805335924690
H        -1.92000730584138    8.22485161475387    6.97107744227199
C         3.28879669634983    9.27389362953583    4.30219510975492

