57
CSD_code = LECJAG | q = 0 | S = 0 | Stoichiometry = C26H22N4NiO2S2 | MND = 6
Ni        8.65008811843667   11.67697456966634    0.81455005578954
S         6.55049870459580   13.15727618065886    1.78375377598650
S         8.54914752463540   10.39963142254414    2.71647017924383
C         5.52735855029142   11.73423308044129    1.39861901002883
C         5.98009953082242   10.70595765476344    0.55677912910197
C         9.90367808561646   15.20123186910872   -0.98465556819134
H        10.64935084900040   15.88992533449480   -0.61867646953617
C         8.08329211698192   13.33824313075180   -1.75558397107933
H         7.37837391996305   12.57067455020391   -2.04930053930152
C         9.67790905592755   14.03458238823969   -0.26411499936574
C         8.24786723569461   14.47448265685494   -2.53112749441654
H         7.66196126713517   14.60271258747544   -3.42763003996140
C         9.17134466199491   15.43063710549337   -2.13420593569960
H         9.31817270183286   16.32939933827426   -2.71452614864993
N         8.77293816685845   13.12602195927699   -0.64085099344921
C        10.71878005361315    9.50048588483023   -3.06418055490774
H        11.05100112061337    9.15521106821488   -4.03221137567579
C        11.16356199447914   10.30838373154939   -0.86448848438603
H        11.84910711073174   10.60318456846053   -0.07922512362868
C        11.63570228027680    9.87680380310256   -2.09409102116859
H        12.69687695323180    9.83346990193438   -2.28285642743126
C         8.98516774779732   10.02937683623353   -1.50935005250354
C         9.37045154329999    9.57577576243895   -2.76528048605609
H         8.60294481267195    9.29533363515996   -3.46988764848521
N         9.87218078387393   10.38267088548660   -0.57273746236456
O         6.69643225967244    9.62256863061475   -1.94006234307334
C         7.51755503000399   10.10170492113760   -1.16304583051377
O        11.38728917518177   14.49965650259397    1.29996153916938
C        10.48080134328367   13.74099959354842    0.97433731693420
N         7.25076672024384   10.74034768538606   -0.00570950227755
N        10.07689496568998   12.61108246908777    1.58812629992971
C        10.07851083704996   11.04310988262452    3.38661693699209
C        10.59712585652389   10.49035885699410    4.54190349024483
H        10.08107258486957    9.66978670277416    5.01803260030628
C        10.67903179372859   12.13175235377021    2.73881871777772
C        11.77061584156440   10.99314312377210    5.07268329511016
H        12.18984203623965   10.56210521070089    5.96874954477254
C        11.86272018830919   12.63019843909356    3.30344012375311
H        12.35470588641551   13.46631965423086    2.83651455969133
C        12.39217630463411   12.06142108683640    4.44356693278479
H        13.30814436120541   12.46316339245600    4.85131696677905
C         9.11160921977057    8.75295860019100    2.16854228294543
H         9.95866639221005    8.85709595040965    1.49826089502144
H         8.27494040807169    8.29327220096161    1.65168622104379
H         9.37908329196415    8.16636553766149    3.04269701269654
C         5.83916476300930   14.32509525836148    0.57350811881695
H         5.88276130749332   13.89484561499512   -0.42189033663463
H         6.43509725432775   15.23086865664461    0.61983981203255
H         4.81104039430753   14.53716107983829    0.85143906690262
C         4.27628256016954   11.68684000964768    1.98739801635375
H         3.97770931643251   12.49602632268161    2.63704224630686
C         3.42925825174563   10.62097461178687    1.75216307537929
H         2.45148902882540   10.59138675024246    2.20794755192453
C         3.86176498299133    9.58760669943850    0.93614966147132
H         3.22042417370320    8.73774141497562    0.75451277253673
C         5.11148762240511    9.62330046029061    0.35555665784665
H         5.43038095758683    8.81066242058709   -0.27599505691256

