56
CSD_code = LECROA | q = 0 | S = 0 | Stoichiometry = C20H26NO5PSi2W | MND = 6
W        -0.85036041695388    5.00036801255300   15.29923823583201
P        -1.52425907981685    3.04149055297863   16.62881474677191
Si        0.47883596191117    1.19223244354276   17.98166832178144
Si       -2.07447908235725    0.03146935572290   16.14055962976579
O        -3.67561691621733    6.11864815382528   16.09119890999298
O        -0.08583730189357    7.50463060154296   13.59111832872071
O         0.33416872043174    6.41628392556133   17.84281821789150
O        -2.09028164963835    3.76311627137771   12.69405428584306
O         1.86053864842350    3.58569160943695   14.58007757952867
N        -2.12865940271443    3.23676547418167   18.26721756991225
C        -3.08909153052290    2.97676376875696   17.45354911746799
C        -0.76937982632441    1.38034448355008   16.52529939970153
H        -0.15881885395377    1.46689598598950   15.61867713537434
C        -4.50922511758813    2.90712243098627   17.44335348926761
C        -5.20419774899863    2.96218726099662   16.23393212598861
H        -4.65145224796914    3.04816939537078   15.30912477710807
C        -6.58328641692590    2.93433591389011   16.22727095050482
H        -7.11435465518038    2.98800985522654   15.28813983603904
C        -7.29955170638161    2.83829685309439   17.41623866494538
C        -6.59949465406989    2.78247281848865   18.62110974914002
H        -7.14996028728826    2.71382151966668   19.54823466632400
C        -5.22328884512989    2.82217736379117   18.64376103137003
H        -4.68012627704874    2.78801130849392   19.57579322995766
C        -8.79398724428901    2.79470785954885   17.41817657875311
H        -9.19427766526439    3.58670404756780   18.04932214017800
H        -9.14168693173006    1.84427563291929   17.82214498703233
H        -9.19210854817353    2.91215947150405   16.41397222770137
C        -2.90390630250567    0.58276083685393   14.50996479917307
H        -2.96187666010699    1.66796308279576   14.45704195975696
H        -3.91085909076311    0.18991525812236   14.40580836212649
H        -2.33361545207528    0.25094332714578   13.64725807892451
C        -3.37755364722137   -0.19315792292383   17.52160092478661
H        -4.36656469723024    0.10897561887391   17.18996765515890
H        -3.13928656183603    0.38466033899306   18.40744742049647
H        -3.43949278559155   -1.23544794035390   17.81863454966753
C        -1.19001390400620   -1.63388574146021   15.86837115941997
H        -0.79966839115599   -2.03376606679445   16.79825716264909
H        -0.36240598516827   -1.54354274487650   15.17292797349133
H        -1.88116857176397   -2.36515410350366   15.46260245956127
C        -0.40751176127704    0.53779738401266   19.53513295894611
H        -0.86731529203275   -0.42986591080005   19.36198791021367
H        -1.18089483861400    1.22821544310852   19.85665891505527
H         0.29521280709099    0.42720947569442   20.35472461216468
C         1.84822651019793   -0.01194335446303   17.42867481905435
H         2.35377891256634    0.34065423487331   16.53556544374457
H         1.45738173136743   -1.00079149465726   17.21827648397813
H         2.59532384834182   -0.11376438162225   18.20806932122230
C         1.23833412103853    2.90155222703021   18.33464923568619
H         0.47414414237841    3.58490666606654   18.69507781455512
H         1.67534883147579    3.33533831156007   17.43807413574000
H         2.01897265706873    2.85227737006391   19.08813462762981
C         0.88934374574672    4.12689851844975   14.85004340298471
C        -0.35876880830115    6.58938727800428   14.22014827030705
C        -2.63247732852227    5.76185674401537   15.78598778171764
C        -1.63782125365471    4.18415942743153   13.65737074724726
C        -0.07962689976858    5.87389574796555   16.92937508183564

