43
CSD_code = LECRUI | q = 0 | S = 0 | Stoichiometry = C12H26Br2HgN2 | MND = 4
Br        1.30451344121955    1.63136358472818    4.13864553275726
Br        4.41950573359444    4.28073443826057    6.65813529652743
C         4.14880593018056    1.04194727326737    8.25418622634449
H         4.16312756449169    0.31902679505468    9.07579843994614
H         3.48774073318973    1.85977351722738    8.54538398452427
H         5.14641676913948    1.45182919113135    8.11373300087839
C         2.36343574687755   -0.17963043612087    7.25730976547582
H         2.43762474847517   -0.99909175391048    7.98131542615980
H         1.94685074484837   -0.56662401550702    6.32854069278902
H         1.67370657653719    0.56309659891271    7.66034793038228
C         4.60432191770425   -0.52770595033221    6.41027987639872
H         4.00985709667427   -1.13577141420818    5.71987196682369
C         5.22822671603724   -1.46336879379642    7.45822094511946
H         5.83604792976014   -0.88278495523034    8.15343363390453
H         4.43346749681925   -1.95332732134791    8.02375378016559
C         6.12413760967298   -2.51660921401658    6.82122404057027
H         6.52941576330397   -3.16809231565745    7.59733065434821
H         5.54701005765742   -3.13545839923116    6.13074914740459
C         7.24892937631176   -1.81922774188220    6.07114918798731
H         7.84514296108177   -1.22626515817067    6.76798227818976
H         7.90875454797149   -2.55286533492948    5.60473794647760
C         6.64971342605473   -0.92114881154398    4.99751744315803
H         6.08465492758058   -1.55165418903906    4.30983834656356
H         7.45315934096598   -0.44027504185517    4.43738364782202
C         5.72374491750379    0.15505811693546    5.58984189575005
H         6.30912065760028    0.77395736451463    6.27898996932922
C         4.69701696680559    0.37873193528851    3.37117673651572
H         5.51469965908633   -0.00253643560256    2.75121736479656
H         4.09962156462976    1.05657760070434    2.76396858301243
H         4.05347259631897   -0.44611384914623    3.66686147217345
C         6.22739456019713    2.05476364403627    4.17495700565330
H         7.09884189017398    1.54243510207608    3.74360539939138
H         6.55092620968406    2.56929327238012    5.08414439612385
C         5.75215406847516    3.10620890910797    3.17271716141834
H         5.67123357692828    2.67131659071238    2.17533956297647
H         4.75285956914386    3.47051340420279    3.45798904262423
C         6.71322668130203    4.28769051988543    3.13726525537789
H         6.74543193161680    4.78031238858280    4.10611210953249
H         6.39301340497189    5.01274614700794    2.39362961627534
H         7.71720542148078    3.95413077970444    2.88318447576556
Hg        3.18357610583209    2.49707907370533    5.47845163753776
N         3.66206407522554    0.44978187476977    7.00373814442912
N         5.19112898687548    1.08188300933150    4.56034098059975

