43
CSD_code = LECSUJ | q = 0 | S = 0 | Stoichiometry = C12H26Br2N2Zn | MND = 4
Br       -2.41044895263113   12.82854546915076    2.79832567379422
Br       -2.24683907737860    8.41216407985227    2.62377994145967
C         0.14002664155249   12.01784647081594    4.97924332027671
H        -0.88194955558622   12.25820639950283    5.26219991209125
H         0.47555459288085   12.79431182891829    4.29581158750400
H         0.75843258925023   12.03488139207466    5.88082971793115
C        -0.07522738521250    9.64438731173588    5.30636315364771
H         0.73532399986378    9.61389792936462    6.04693584318248
H        -0.08419246138308    8.69087507211483    4.77188841958990
C        -1.40109092817813    9.79981472803505    6.03924712559476
H        -1.37112599032169   10.60505717650684    6.76813518719678
H        -1.62437312577967    8.87346930490508    6.56199969079075
H        -2.21704051694552    9.99125318147293    5.34178996474828
C         1.46233771276783   10.46187429022486    3.61841546268741
H         1.52348924493964    9.37813422794360    3.46583485891070
C         2.68620654688326   10.89736407145588    4.43913350769868
H         2.65068054872655   11.97300951608797    4.61512362664153
H         2.67243267104158   10.39217625637265    5.40653511457670
C         3.99300836679058   10.58712427600207    3.72123644200863
H         4.83231643203493   10.89706984306817    4.34570715426565
H         4.08293026007896    9.51271136452324    3.54682007140333
C         4.01601338644175   11.32852826777971    2.39259360590594
H         4.94838103409061   11.13036691468700    1.86176193261639
H         3.95187814838305   12.40452520530686    2.56829486452902
C         2.84140190269323   10.86232390320229    1.54261173449200
H         2.95947927017333    9.79197889412886    1.36983737514790
H         2.86646227374952   11.36927438446638    0.57649384146196
C         1.49271860345600   11.13359906166523    2.22729539908310
H         1.39625718245815   12.21522049081055    2.37752222204856
C         0.51515782046228    9.40852564641015    0.78143004873578
H         1.22455670007632    9.44532434552799   -0.04985883958844
H        -0.43627227400588    9.04382154594978    0.40209228742066
H         0.86263298411047    8.69091222865302    1.52088757135048
C         0.07224814298096   11.73189117760401    0.35230703123313
H         0.94179863222652   11.82149759904669   -0.31249788364911
H        -0.07935831882655   12.69498091199313    0.84644642908546
C        -1.15685569636220   11.42267086556315   -0.49215592901406
H        -0.98384521544717   10.59531129028006   -1.17488696285001
H        -1.41113054562715   12.30212076175268   -1.07801745797975
H        -2.01627617101403   11.18289688458637    0.13479013821836
N         0.17668349662732   10.70893995872517    4.31729555704095
N         0.33068266224752   10.72628147248258    1.39937050275951
Zn       -1.43886563228879   10.65063399924914    2.76623075595106

