43
CSD_code = LECSIX | q = 0 | S = 0 | Stoichiometry = C12H26Br2N2Zn | MND = 4
Br        1.30247026045829   -2.68826786781392    9.97582293032180
Br        3.20554504233912    1.27864236473544    9.47507261508178
C         3.03413829394344   -0.10723122810107    6.32925565906747
H         3.90999674383629   -0.34986481837437    6.93053431872079
H         2.83638225008070    0.95579572417156    6.44547411952427
H         3.27538140772140   -0.32096079586696    5.28446688420276
C         2.16468931505958   -2.31123858809180    6.52953812584618
H         2.24601897520462   -2.50837523251213    5.45556163424639
H         1.37567078708803   -2.93559361758877    6.94535115581358
H         3.10430113978280   -2.59675464932269    7.00146921986789
C         0.60265206843142   -0.49241988330817    6.19419280262541
H        -0.05520939003509   -1.36530795214534    6.26892366284298
C         0.72129257800481   -0.11928889298009    4.70986070504811
H         1.36651670576620    0.75258083040930    4.59538872777259
H         1.16783502945294   -0.95160851932651    4.16219356801703
C        -0.63572965465387    0.21948324984025    4.10650566157821
H        -1.30428979612784   -0.64171997769100    4.17311598778357
H        -0.51196337795181    0.46682484729222    3.05102486396060
C        -1.23619288425627    1.39781064588953    4.85973364471987
H        -2.20920273043775    1.65951515450030    4.44113142803950
H        -0.58406711094370    2.26836899665002    4.76266710436654
C        -1.40059538612615    1.02811516561836    6.32857537996431
H        -1.84873307582983    1.86602152388337    6.86472841475479
H        -2.08345668950119    0.17944689356098    6.38862683959688
C        -0.05869246638535    0.66095530466062    6.97987181653215
H         0.60632234607390    1.53059297387548    6.91900869183157
C        -1.27465955153970   -0.59888751236264    8.70415382082240
H        -2.25202022374523   -0.11384897539585    8.63190520914686
H        -1.16534188282619   -0.99758508530902    9.71017261541060
H        -1.23972561637677   -1.44135619873569    8.01782709047215
C        -0.36953829297690    1.56538326269654    9.21418658648250
H        -1.31794037928938    2.05088236143466    8.94901825695919
H         0.44355726011734    2.25242643642790    8.96610902354208
C        -0.35003046944712    1.32581476624845   10.72347456643242
H         0.45767056397144    0.62981803375958   10.97984187057808
H        -1.28961049598277    0.87805949763626   11.05121893599186
C        -0.12220545149158    2.63470994874871   11.46958349216664
H         0.85074004136101    3.05034640517140   11.21672050296922
H        -0.15426193951551    2.46517855535674   12.54237860629581
H        -0.89023688773873    3.36143661825863   11.21146317498820
N         1.89280439022317   -0.89755733371112    6.80314360085459
N        -0.18041312696200    0.33670271892736    8.42306643653737
Zn        1.76813168121867   -0.56514515115239    9.02394024820187

