49
CSD_code = LECSOD | q = 0 | S = 0 | Stoichiometry = C14H30Cl2N2Zn | MND = 4
C         6.05411425214455    4.12835238733261    5.67771842893221
H         5.52701277219591    3.39467379070189    5.07342083140090
H         5.32885158285486    4.55396004986653    6.36573408660671
H         6.84268009405956    3.62271988149045    6.24245135392943
C         7.73560291676345    4.64980496890073    4.03725217003709
H         8.55333848160265    4.35972954199776    4.71136426679536
H         8.08866653754625    5.45351693798252    3.38690045044021
C         7.36677374505866    3.45811005792588    3.15723159034256
H         6.39666171915948    3.64756608607566    2.68345779114957
H         7.27904871465226    2.55008049193132    3.75633806193474
C         8.40921092775843    3.24387900986750    2.06187882240127
H         8.45334880632562    4.13727911848209    1.43643542372782
H         9.39307951919872    3.10035914555139    2.51681142658429
C         8.07309568787719    2.03876127178397    1.18739009272034
H         8.02929248979091    1.13948480737601    1.80678791344781
H         7.08643494124033    2.18577921544711    0.74423891994935
C         9.10107782548895    1.84381077922731    0.08013590877651
H         9.13848924516138    2.72209303795047   -0.55995828166511
H         8.84503233867510    0.98280021640911   -0.53250360889263
H        10.09182935503038    1.68384124777175    0.50089517179182
C         6.97955058669482    6.39917395995090    5.54246834571923
H         7.61240763072280    6.97759173372018    4.86063729469762
C         7.77875971753535    6.11203331562687    6.82271129443854
H         7.17233746599097    5.52529715496679    7.51346544953655
H         8.66910120808404    5.53258025295262    6.57356143160473
C         8.18931222712300    7.39762621920707    7.53035096499338
H         8.76012726671087    7.15280937845896    8.42745749001916
H         8.82907071349822    7.99622411983323    6.87860516487250
C         6.94355181041320    8.19232121046506    7.89633880760326
H         7.21927187617434    9.11381010909841    8.41145479240275
H         6.31687677471160    7.60542065475923    8.57124273189182
C         6.17332738171051    8.53015375171818    6.62582667471126
H         6.82062122417308    9.13542937760969    5.99041105055102
H         5.29071164718011    9.12073586547023    6.87809209370567
C         5.74291339556502    7.26144577922398    5.87537182178070
H         5.09672978390307    6.67620862025151    6.53806424180183
C         5.43200087030216    8.67615571989508    3.88285005272310
H         4.91280239814116    8.69545571411649    2.92641576479683
H         6.49185053748047    8.55922050612550    3.67299828866649
H         5.25631984958670    9.62820961399358    4.39205359498501
C         3.53841397617657    7.77003775790073    5.00855597706222
H         3.41939981613334    8.63424952448207    5.67096084174468
H         3.12309623085071    6.88576147943350    5.48765818948300
H         2.97303624927603    7.95211528437722    4.09612692213232
Cl        6.02769173304975    6.42861679161183    1.47524840546117
Cl        3.26087306056335    4.52670347139354    3.67930985667040
N         6.59687375910422    5.17450483347201    4.80642002941588
N         4.94187347715136    7.53807874383957    4.66427165160814
Zn        5.06615537943225    5.76772701191161    3.36328995456826

