56
CSD_code = LECTOE | q = 0 | S = 0 | Stoichiometry = C25H14Cl2N6S8Zn | MND = 4
C         6.06650208617138    1.82291311713699   16.06588149909322
H         5.80382940386138    0.81497836643228   15.80240679008584
C         7.09206204840701    3.83212943362228   17.30569623007224
C         7.74989906973613    4.61912953003210   18.17421162214210
C         9.15684827528554    5.57064246048986   20.11538229907013
H         9.76791454279534    5.59234281808482   20.99824997329720
C         8.76145223449960    6.63633125357796   19.42479352114592
H         9.00274538606276    7.65558949356066   19.66161932645586
C         1.34264353849436    4.92045809745318    9.28130149411704
H         0.34010231963204    4.54280239963004    9.15170612611045
C         2.07202243758788    5.38922134066659    8.19653591365452
H         1.65606254482345    5.39140723775475    7.20231810607593
C         3.35676692498256    5.84574016653425    8.41576117172712
H         3.97408550883083    6.22800358141196    7.61461313876746
S         7.76918605929830    6.37710993925720   18.01292949356552
S         8.65369443591109    3.99757910264616   19.55717065482227
C         3.93845419722430    4.18836446963789   12.57460668011007
C         3.57485707422999    1.97787406804918   12.62494279515259
C         4.84965423214706    2.92515963255055   14.18623227133671
C         2.91142034557573    0.85710529197407   12.01402371616647
C         3.00605836247697   -0.43670650630442   12.36420560811497
H         3.62019542550592   -0.78929002428901   13.17220789779286
C         1.36839142412629   -0.40496879401243   10.37893088622317
C         0.49771601319967   -0.74611331753916    9.41350718924797
C        -1.16820450593978   -0.71007330114608    7.44391576265222
H        -1.77921597176757   -0.32396980991473    6.64976290693176
C        -1.07603309395039   -1.99029614942251    7.79233464437618
H        -1.60071463476571   -2.80233298069731    7.32476954013920
C         5.66802248987107    2.90033388302906   15.36896126134101
C         4.61008170915529    6.45949717656027   12.43739161567024
C         4.41912110153500    6.86205165210991   13.75784066226608
H         3.67448173470154    6.37699376180639   14.36576892482024
C         5.21753660608836    7.86862705942193   14.26578500403095
H         5.11137827164691    8.17940461126425   15.29369115289705
C         6.15033171294166    8.47237797678530   13.43283891260387
H         6.78661858235766    9.26575053744291   13.78940274041364
C         6.25649538801242    8.02506929488657   12.13073032575240
H         6.95758845114022    8.45809837513500   11.43078420591463
C         3.22663509711944    5.40902325714554   10.66296676858597
C         1.91716095251325    4.94904278609679   10.53756124589120
H         1.38091103407390    4.60747015642357   11.40633326191895
N         4.35307233204567    1.79882315360828   13.68663188513781
N         4.65280010713316    4.14319212591303   13.68774795834857
N         3.31964343096892    3.14716469640321   12.04210212827836
N         3.83358532400886    5.40038028436053   11.93177072647511
N         5.51709285340627    7.02799210569963   11.65153856224873
N         3.92663931260230    5.83660946935639    9.61798736744528
S         2.10133239917562   -1.59237533285872   11.46782195334899
S         1.87479316883448    1.26977052009620   10.66082000366039
S        -0.01960824850905   -2.40716166081992    9.11494606694461
S        -0.22435981189037    0.45350710017889    8.33842537437512
S         6.19457303134769    4.47955384418581   15.92141520345465
S         7.05721109548083    2.06838754372070   17.45015085803951
Cl        6.38239691374973    3.85332788128412   10.83308866131717
Cl        7.01191299950307    7.10496745611374    8.46234883074528
Zn        6.01905627655224    5.86668936753495    9.95343107963435

