85
CSD_code = LECVUL | q = 0 | S = 0 | Stoichiometry = C36H32N10NiO6 | MND = 6
Ni        9.06741066332151    1.55728102954380    5.86001159533011
N        12.16048569762109    2.69719890757866    5.13966921581307
O        11.32173655930706    2.39014156844593    6.01946239618415
O        12.48479167702379    1.81476546871999    4.32909920212264
O        12.62580483877783    3.80836826823316    5.09738714482054
N         8.86696250606579    1.94235596732357    3.96560332516116
N         7.61598859404248    1.93898727867599    3.50413591153893
H         6.88578667370450    1.57035483582395    4.11194581240179
C         7.56081212153402    2.25879126604920    2.19875188964101
C         8.87342134538963    2.50186775901103    1.80993619146642
H         9.22736895739723    2.80530565827718    0.84742228265341
C         9.64523178482963    2.28966919582003    2.94780766624211
H        10.71098414025232    2.36674657169013    3.02984481886608
C         6.31737092028784    2.32745414910693    1.45091307935901
C         6.33306316715111    2.27125719467560    0.05745549450957
H         7.27349919947655    2.16303295666003   -0.46023966724075
C         5.15320029064500    2.33634094241166   -0.65838546565600
H         5.17719650176021    2.28816009699966   -1.73681275237224
C         3.94227002894274    2.45993434486659    0.00303315360713
H         3.02122173331652    2.50970939521205   -0.55776816777015
C         3.91692294679716    2.52037493860156    1.38677835540030
H         2.97561067598055    2.62009437899566    1.90613206258845
C         5.09323114363552    2.45468491679296    2.10868219126293
H         5.06001304517136    2.51937981956420    3.18593344032677
N         8.41969820565484    3.26209619403502    6.28766869078107
N         7.23297073947264    3.46514235846770    6.86240319644257
H         6.60076365625104    2.67153598300923    7.08963279560484
C         7.01543468218158    4.77413048977888    7.08908705998837
C         8.14767385945379    5.44108791145873    6.62524060770430
H         8.34700058328145    6.49159993705400    6.64195659305144
C         8.99139032486787    4.45181295557608    6.13704272258904
H         9.96810534641442    4.56124856862384    5.70742691239469
C         5.80240209179805    5.29085050195735    7.70062435591603
C         5.59013676218530    6.66947938374178    7.76160303103747
H         6.32450059201656    7.34270974599864    7.34778337731977
C         4.44501638533538    7.18011637393008    8.34073156499444
H         4.29506439165793    8.24901617188404    8.37964102479422
C         3.49097932142340    6.32575487946193    8.86887833230938
H         2.59599678635620    6.72581488126899    9.32151087733146
C         3.69141314958680    4.95649287635049    8.81235231022837
H         2.95122957683755    4.28530136665251    9.22152076433827
C         4.83497613004362    4.43662491439145    8.23506991999427
H         4.96561940388699    3.36667963890102    8.20674803994454
N         5.97411697559295    0.41740797718995    6.58020233688084
O         6.81313469221412    0.72433790042588    5.70061460270667
O         5.65000872701559    1.29979300480213    7.39089666779879
O         5.50856126407896   -0.69366368561763    6.62229594027448
N         9.26785532892047    1.17223007507407    7.75438313867005
N        10.51883371324352    1.17531928061397    8.21583075180770
H        11.24911799140814    1.54378104004586    7.60801902595666
C        10.57394528143732    0.85561321616861    9.52124315614018
C         9.26128273977048    0.61289398529036    9.91009553415265
H         8.90727147764779    0.30962499654109   10.87263955868442
C         8.48951091160006    0.82519112228617    8.77221357900916
H         7.42373716881024    0.74837279520695    8.69018369628649
C        11.81739751203274    0.78671477377623   10.26904291491626
C        11.80179936275845    0.84316068036265   11.66249044594648
H        10.86142833926230    0.95179656684189   12.18021618213314
C        12.98168912192523    0.77787745255621   12.37827193964420
H        12.95777534815375    0.82632548446344   13.45668859193208
C        14.19254814884434    0.65385289302502   11.71680092182363
H        15.11361596577791    0.60391487955437   12.27755610924013
C        14.21779628975938    0.59314692865011   10.33306460439196
H        15.15904274246228    0.49300264672566    9.81367556196795
C        13.04146202559767    0.65901896699732    9.61122198422023
H        13.07458846568667    0.59406688160252    8.53398336025101
N         9.71515623234428   -0.14752602481575    5.43236813936365
N        10.90190323448449   -0.35056812713127    4.85766821509472
H        11.53407807628284    0.44305684674385    4.63038926475106
C        11.11945262699598   -1.65955547188736    4.63099477405128
C         9.98721397571039   -2.32652068680116    5.09483060973384
H         9.78790104281627   -3.37703598396964    5.07812619022901
C         9.14348037787324   -1.33724917350880    5.58300502130839
H         8.16675672366929   -1.44669011086135    6.01259718545371
C        12.33247510476585   -2.17625639331274    4.01942189858246
C        12.54470049347120   -3.55488352398153    3.95829784848823
H        11.81036253088652   -4.22813531335154    4.37213030988116
C        13.68976715320351   -4.06549279118872    3.37903774527318
H        13.83971650922348   -5.13439123038583    3.34006257115614
C        14.64380593818100   -3.21110475381340    2.85093960132912
H        15.53873698844462   -3.61114374897859    2.39818757022905
C        14.44343497216957   -1.84184262600002    2.90765412065083
H        15.18358590309147   -1.17063011315755    2.49846020090001
C        13.29990893858998   -1.32200376901799    3.48503295878958
H        13.16928638263813   -0.25205890879667    3.51344381688510

