84
CSD_code = LECWUO | q = 0 | S = 0 | Stoichiometry = C25H49I2N3OSi3Zn | MND = 4
Zn        3.36748671742653    4.59613029271995   15.84431359691440
I         1.33597068583781    4.02891706424138   17.34289217630661
I         2.93719833712668    6.27314552132525   13.90195859577203
Si        5.02231748614954    2.94862142705160   15.32871235806225
Si        6.95925104820985    0.53516674062177   15.77381859784555
Si        6.17375527025368    2.39710845836193   18.02881120640662
N         4.26914724803037    1.99404801510157   13.93427303801650
N         5.88670501940385    3.33243398189304   13.75066225854310
N         6.06039645381513    1.96198467909926   16.30609384258024
O         4.25171948523608    6.27048340068784   17.30587574890641
C         5.00298889225080    2.64433549644128   13.04659727529361
C         4.83538659204582    2.65103093778908   11.58531836628926
C         5.48954006845048    1.71418029725125   10.79080061277616
H         6.11590754918398    0.96272479631005   11.24776077244741
C         5.32413985323560    1.73232883872541    9.41736763280595
H         5.83672005348691    1.00154556027921    8.80968447673069
C         4.50439349244575    2.67890980862290    8.82597396142666
H         4.37653146525922    2.68874440333063    7.75421384339668
C         3.85083260433697    3.61173734223912    9.61326849958659
H         3.21201756457003    4.35530356186726    9.16263133616996
C         4.01427603788806    3.60308843166823   10.98699094063510
H         3.51625225523334    4.34762165602738   11.58831804727827
C         6.97884690693287    4.18740797888529   13.32451460352808
C         8.11539860777039    3.33473955648617   12.74529281661185
H         8.47459910148711    2.62909365144848   13.49043466939350
H         8.93894911976982    3.97903868289190   12.44747591444632
H         7.77560749959370    2.78983236034909   11.86718471989441
C         6.54497962935011    5.23057805226188   12.28869590358723
H         6.34245460966056    4.77107914499753   11.32545049068564
H         7.34064407226766    5.95945598768136   12.15701001420598
H         5.65251761350809    5.75688522966099   12.61484008891049
C         7.48004402528901    4.89810922680075   14.58247936300990
H         6.71114507854197    5.56124721115885   14.97053236808885
H         8.36245906893038    5.48992015324444   14.35385266022776
H         7.72684584231896    4.16613168909727   15.34621870083595
C         3.03623376469067    1.24056598695863   13.77086007385603
C         1.86266754858026    2.18056664897385   13.46812261761484
H         1.75119551430086    2.93074740774056   14.24851815934133
H         0.93752059351572    1.61218025683309   13.42113854393064
H         2.00597045196309    2.68666320722144   12.51618756564443
C         3.12864000721531    0.20528886932300   12.64317256752678
H         3.22269342751147    0.68562369032763   11.67322487325671
H         2.22221154567870   -0.39491726457791   12.63870001011321
H         3.97577555773289   -0.46060174186359   12.78682274903378
C         2.79845623069944    0.52235400040930   15.10174320240398
H         3.66763860927721   -0.07453472698266   15.36669939421903
H         1.92861920959344   -0.12473493707268   15.02905478807343
H         2.62138866038629    1.23930533936427   15.89868851789761
C         6.76852767545189    0.03888720334872   13.95050231754335
H         5.75117994126125   -0.24362012871308   13.71403636137462
H         7.40212231416475   -0.82064984558652   13.74939768098647
H         7.06284722205380    0.83064327227570   13.27503643954091
C         6.33881215021924   -0.97329807043587   16.77162139021681
H         5.82258945773304   -1.68333574053935   16.13152907856346
H         5.65385185035083   -0.68787142872711   17.56266503814946
H         7.16710300356820   -1.50593797507911   17.22805662041244
C         8.82567288671327    0.88805436773301   16.00935377110252
H         9.01850115294300    1.93438778383680   16.22435130680165
H         9.38883236710394    0.62544353309131   15.11813750658106
H         9.23718622496167    0.30616443431347   16.82663038456966
C         4.48614461388356    2.07491123716317   18.84101215762724
H         3.75966336988537    2.84424806320634   18.60851636462129
H         4.57725137783531    2.04504112835329   19.92253978790356
H         4.05868734960743    1.12810778782484   18.52431854465305
C         7.48324841657660    1.42043760030428   19.00254073761139
H         7.37205146204610    0.34877849824570   18.90551226116043
H         7.38824993740595    1.66285281122342   20.05660028419484
H         8.49199652142687    1.67964863387866   18.70443910151283
C         6.72108760574344    4.21576502195624   18.16899271124461
H         7.73368874212233    4.36014654495687   17.80347924467581
H         6.70962492400198    4.52316605889773   19.21037478272675
H         6.07504395379504    4.88841016612328   17.61965087770412
C         4.73734937112155    7.53914370298904   16.89379226070841
H         3.89529650312398    8.20970584057232   16.67853769388466
H         5.32673460305684    7.40574337639030   15.98678677494772
C         5.54859976871966    8.04692557683776   18.08415305260505
H         5.60248293087967    9.13233970265919   18.10120409446428
H         6.56142643631955    7.64592864788715   18.04345697014409
C         4.78555490867167    7.46843246934750   19.28554071770785
H         5.46333740488090    7.00408257882619   19.99919270411517
H         4.21605573648477    8.23641491653424   19.80527401347988
C         3.83938278156548    6.43041626867385   18.65867681849941
H         3.89418302784644    5.45337948157462   19.13975071998686
H         2.80159553000748    6.78379010680865   18.68588686742395

