45
CSD_code = LECXAT | q = 0 | S = 0 | Stoichiometry = C14H24Cl2N4Zn | MND = 4
Zn        7.92394774413070    3.77200929766656    3.71328898836117
Cl        7.12410563876358    5.30978514484401    5.31661338316207
Cl        9.78579154266486    3.71716906046650    2.65111560755001
N         6.20565831920497    3.93565923749143    2.55113094663649
N         5.24307915880501    4.68090969902079    3.09576899860504
H         5.44288359771812    5.11814230869262    3.99781502621274
C         5.74260127722419    3.52446143347747    1.37957589374323
H         6.33906901520483    2.90201311856695    0.74267287355927
C         4.45777731692679    4.02184512501623    1.17428298902816
H         3.83679046833804    3.85671619802855    0.31930861908385
C         4.16617696742094    4.77169948636665    2.30393569099624
C         2.96164387024670    5.57353647456207    2.70047541739708
C         2.45285557367035    5.07143261685418    4.05838012727339
H         3.19975508720020    5.21854661923134    4.83442493984292
H         2.21011389876684    4.01227985951031    4.00611708350404
H         1.55551335059608    5.61624653078842    4.34085119334899
C         3.37017249321671    7.04858140157182    2.81357504783726
H         3.76130152140307    7.40799670772853    1.86462733302607
H         4.13418868749343    7.18458854037984    3.57472574173541
H         2.50721281991683    7.65315378364797    3.08145949909369
C         1.86084976585262    5.42247229711852    1.64925822120013
H         2.20085105553295    5.78614818455469    0.68305225067243
H         0.98693829521595    5.99861671340029    1.94290952295328
H         1.56709620740855    4.38060855364445    1.54762004338100
N         7.50360086873509    2.13450110813508    4.92290848401899
N         6.83504681707069    2.43313415884103    6.03757976048382
H         6.63165218117971    3.41952945595780    6.21173130644603
C         7.69907293978766    0.82402998955090    4.94349695555570
H         8.22137477774948    0.33573000612295    4.14496801292492
C         7.14453914740236    0.27814442655682    6.09880276966976
H         7.14936261129285   -0.75213898250631    6.38575846831592
C         6.59686734153793    1.34944930230159    6.78854470326503
C         5.86922458589317    1.44166856225190    8.09740223434309
C         4.49788728853551    2.08814006826419    7.85948388467240
H         3.94088810642544    2.12686465957673    8.79226484203082
H         3.92364851068010    1.50885917518571    7.13967006744305
H         4.60424209169960    3.10236334235258    7.48284212151775
C         6.69236455591599    2.31075180180864    9.05773139544086
H         6.19271037978155    2.37434394038455   10.02122461416212
H         6.81338368242572    3.31796884665801    8.66694275398889
H         7.67908657203762    1.87905820519875    9.20934840487171
C         5.68472623682675    0.04581742126957    8.69508208749674
H         5.15341342650309    0.11526839968799    9.64102745376497
H         6.64802781464497   -0.42329045122965    8.87786210629337
H         5.10910639098419   -0.58651182887681    8.02364213497380

