65
CSD_code = LECYEX | q = 0 | S = 0 | Stoichiometry = C19H28N9O5P3W | MND = 6
W         3.62211974528584    1.04124151748998    0.73917447414296
C         2.69936794352979   -0.06733027364461   -0.57133752862229
O         2.14645492756903   -0.69392892964633   -1.36924235178566
C         2.10614459129051    2.27736029540833    0.69740503337070
O         1.26609960457861    3.06891536948290    0.67390223877822
C         4.34278834795294    1.96867670920273   -0.82036493612541
O         4.73055629813609    2.50182403175618   -1.77017958521962
P         5.19795701776890    0.93507956508477    3.26494036652490
N         4.68596098839618    2.21936131669399    2.45893464135663
P         5.76736472175576    3.42227252371265    2.26562123528503
N         6.80108886175670    3.58090338055783    3.48715369851204
P         6.83554796678728    2.57192892871780    4.72807713186624
N         6.04136966277198    1.15108783227378    4.60014753415006
N         6.00850778935323   -0.09552158525578    2.17877102894928
N         5.38651851455195   -0.17476689231918    0.97504164330304
C         6.14599490735782   -0.90605995432925    0.18963410266985
C         7.29679305002457   -1.31433539852871    0.89906155523157
C         7.19278421177756   -0.78125837306179    2.15774288672001
C         5.76845370504219   -1.20872468036346   -1.21240975683776
C         8.09165304116422   -0.85746192756004    3.33311709844244
N         3.79786853140513    0.06138734281155    3.58995896249279
N         2.96382600529202    0.01811389155176    2.52171047791864
C         1.91091956552695   -0.68414405100080    2.87772601732196
C         2.06748810422050   -1.11953002510404    4.21312157720549
C         3.27552176363172   -0.63562055984789    4.64328728535581
C         0.77935438139946   -0.93146120755822    1.95135407801672
C         3.98563449105492   -0.75719130753864    5.93819610267111
O         6.56149742620347    3.26124793407331    0.89458219242975
C         6.37122435689165    4.39754340046282    0.04625027735618
C         5.05743333704354    5.05057932487391    0.46406343292915
N         5.03355798875058    4.87150021801892    1.90852374593614
C         3.81218916484107    5.23887073583725    2.59166205220202
O         8.34530720877061    2.24123067241947    5.13276829101638
C         8.70975730311440    2.83476767954525    6.37349142126784
C         7.42419863298778    3.04304131635197    7.17101039096818
N         6.45225629529251    3.37783069838334    6.15067692140135
C         5.07567167624038    3.51702328222272    6.55571465804073
H         8.09876724238655   -1.91696897061888    0.52255244135261
H         4.85889795175563   -1.80783460945996   -1.23501454793384
H         5.55785304168883   -0.28297027403758   -1.74596060018369
H         6.56800409474022   -1.74753836578182   -1.71323813020665
H         8.42678592723544    0.13947477635175    3.62428991325398
H         7.57320389725868   -1.29380816215443    4.18702540599182
H         8.95715735894660   -1.46935273847746    3.09142692851055
H         1.37498970956768   -1.71164720130675    4.77689031111886
H        -0.11218621996108   -1.21169545929483    2.50571758130603
H         0.58908043311211   -0.03548993405722    1.36174127850144
H         1.02957757910667   -1.73282022863636    1.25696835470474
H         3.46001796328107   -1.45712803662558    6.58287422913777
H         5.00652979860572   -1.10315283977989    5.78184907734746
H         4.03907101098891    0.21216603942656    6.43397002937397
H         7.21165094072286    5.08092112294331    0.19527616205803
H         6.35105234232860    4.04211752917299   -0.98473241902984
H         4.20647043564527    4.55167716366307   -0.01873964953273
H         5.04172900713282    6.11540265398608    0.21863920454615
H         3.93195737072269    4.99991560809183    3.64799657473583
H         2.94072495393064    4.70652219895599    2.19695291465190
H         3.65346142105741    6.31323669227669    2.48529615220178
H         9.19742494840244    3.79283120054823    6.17480710466035
H         9.40985842071104    2.16000918490614    6.87052908097584
H         7.14996658484895    2.12748387663319    7.71507422846638
H         7.52431625889744    3.86477211482855    7.88534884734568
H         4.46533023628789    3.60620006049601    5.65647412451940
H         4.72389946889721    2.65563652447498    7.13623465354121
H         4.95897569218536    4.42018727230141    7.15846235334101

