26
CSD_code = LECZUQ | q = 0 | S = 0 | Stoichiometry = C13H8NO3Re | MND = 8
C        -2.00838940292856    0.11271445414418    3.48865857731586
C        -1.87451789468949    1.16135139337568    4.43795043404335
C        -0.58343649492219    1.06299609011042    5.02040581023866
C         0.09039910749625   -0.02424790186713    4.41686353259308
H         1.02860989755067   -0.45224478580653    4.73145437359514
C        -0.80291794488521   -0.64725727784047    3.48959451534496
C        -0.54268228975669   -1.91828060438384    2.82044379749300
C        -1.40465684476127   -2.44937816027103    1.85676802776548
C        -1.09401488412022   -3.67107187142923    1.29075524058902
C         0.05888724590645   -4.32724776991595    1.69500402275155
C         0.85247543402615   -3.71656715247697    2.65463107403560
C         0.76865972205335    0.92512821231947    1.26679754147546
C        -1.41838435536195    2.65346911712884    1.55319193357829
C         0.88779982582043    3.07458143732886    3.05952923076181
N         0.56675265345240   -2.55356520383982    3.20286596513520
O         1.38879263296871    0.43599389203970    0.43924375420523
O        -2.13849461984954    3.25018732591355    0.89150710103626
O         1.59155287366773    3.93658482379317    3.33010748648974
Re       -0.31720041688115    1.58114159914684    2.74279121724305
H        -2.93227921217409   -0.16339520282156    3.00241510413551
H        -2.67643137817477    1.79693339727956    4.78499355344656
H        -0.22669670743764    1.64001050879185    5.86149906640760
H        -2.28806807054110   -1.91081854235285    1.54879006635202
H        -1.74093369536913   -4.10491219541306    0.54165727700836
H         0.33577418567335   -5.28159894603232    1.27587776273059
H         1.76560063323725   -4.18060663692171    3.00530353422975

