61
CSD_code = LEDCIG | q = 0 | S = 0 | Stoichiometry = C28H28O4Ti | MND = 12
Ti        0.00005986455983   -0.00021387933995   -0.23467442837980
O         1.03193084282532   -0.86379049625290    0.85439589594297
C         1.45329423578690    1.99247685426249   -0.13331709327879
C         0.43928428445364    2.21732651938196   -1.09351304257927
C         0.63744061614306    1.31372653851832   -2.14933445784566
C         1.76613963536073    0.51742795815037   -1.83829382284518
C         2.28566758786621    0.96528328802591   -0.61352774409184
C         2.25858500446795   -2.62784562763433    1.84068198780550
C         2.94003275024380   -2.76283004518382    0.63312064897173
C         4.05679817807978   -3.56628459258381    0.50623743946674
C         4.52072542961104   -4.25415766617746    1.61105970379267
C         3.87485931500226   -4.12745589808430    2.82878040548001
C         2.74880616831050   -3.32163683329606    2.96527488313843
C         1.07109193815219   -1.73642397841812    1.85728635600898
C         0.07873216787249   -1.78607682759888    2.75992148420124
O         2.09754459806661   -3.15391665636602    4.14905993299902
C         2.61725636696113   -3.75787248417057    5.30840003954587
H         1.63423878844800    2.59742612050051    0.74489488640316
H        -0.27513395550222    3.03105173041813   -1.07305276994029
H         0.11988859897114    1.33248839005623   -3.09991108874335
H         2.24771042952177   -0.18609361995063   -2.50672452664260
H         3.19254793830978    0.61376816257923   -0.13841314409247
H         2.57029065994048   -2.21034414787057   -0.22288384185008
H         4.55968843514427   -3.65316946923447   -0.44490030281683
H         5.39038188523591   -4.88996736653538    1.53574050900206
H         4.26309983944876   -4.66795414868311    3.67750311047758
H         0.07528892643113   -2.48847920936067    3.56843362274946
H        -0.74470989422153   -1.08934873321478    2.67728184607618
H         3.63758592603279   -3.42151905714260    5.51849618657810
H         2.60009265426119   -4.85068205130574    5.23897649420078
H         1.96208542787457   -3.44135591588068    6.11896903167933
O        -1.03190778842545    0.86389313587149    0.85390788267287
C        -1.45320641177502   -1.99294376251063   -0.13403225270255
C        -0.43902221858246   -2.21721708165597   -1.09420796580016
C        -0.63767584265835   -1.31360139074396   -2.14984970257607
C        -1.76646289125289   -0.51749803566509   -1.83843475884549
C        -2.28531478328402   -0.96502225223145   -0.61327915639105
C        -1.07101798727996    1.73653447311031    1.85685868296917
H        -1.63393272152494   -2.59812652105233    0.74404827735432
H         0.27569386880501   -3.03067936275135   -1.07392835232830
H        -0.12024784700559   -1.33207323658346   -3.10049182236028
H        -2.24836932113480    0.18594333989651   -2.50670976807977
H        -3.19207018035163   -0.61359638116216   -0.13782000021272
C        -2.25882852653112    2.62757498796248    1.84065247423509
C        -0.07831159218846    1.78658065302167    2.75912767002687
C        -2.94048348037424    2.76233336517525    0.63320068801772
C        -2.74873993622063    3.32177799291962    2.96514226386101
H        -0.07528359617834    2.48836876889605    3.56819373826700
H         0.74415578333688    1.08865796710454    2.67750008775686
C        -4.05692291303661    3.56620935123390    0.50621803950322
H        -2.57039847563276    2.21029400469672   -0.22296367806523
C        -3.87467630505972    4.12775389090412    2.82863807815971
O        -2.09738415520270    3.15422129071184    4.14888072068600
C        -4.52051783948139    4.25450098495867    1.61091642475761
H        -4.56006079453764    3.65278195730431   -0.44479168479892
H        -4.26300431003685    4.66810965006714    3.67742389634517
C        -2.61717872691786    3.75804535215006    5.30823597274137
H        -5.39060649903399    4.88974943709807    1.53581276547702
H        -3.63748505286720    3.42154876642923    5.51825202669512
H        -2.60007631310882    4.85087032432640    5.23899468874353
H        -1.96196778611975    3.44145147290197    6.11873656248112

