101
CSD_code = LEDDAZ | q = 0 | S = 0 | Stoichiometry = C49H46ClNOP2Pd | MND = 4
Pd        1.66222847105811    3.14769322276039    4.81979606750973
Cl        1.30707731094581    1.12847590877321    5.94221078392905
P         0.99490041873781    2.12294760250639    2.90511908911572
P         2.69757230236039    4.05403577244013    6.62987514225787
O         3.24049004485230    6.69464496604862    2.04012054046963
N         1.21831032986583    5.73586094603894    3.42467253796782
C        -0.15646232739111    0.72864245371841    3.09440585665353
C        -1.20992192483289    0.89451765330906    3.98965271549316
C        -2.12856259028092   -0.12014298567136    4.17517664042246
C        -1.99642225529068   -1.30761837574510    3.47276538354396
C        -0.94386362458498   -1.47855654340033    2.58954365925761
C        -0.02206440391527   -0.46419560894211    2.39701358146980
C         3.87100751108009    5.69256052373622    2.43465849805660
C         3.31437844654453    4.68271804286930    3.26310403817369
C         2.02486262900938    4.74071730948911    3.75498475610534
C         2.51687792437879    1.40639559870556    2.21584385161457
C         2.65934208562426    1.06676732392905    0.87343382995352
C         3.86321341972634    0.56264353121448    0.41538529785820
C         4.92954311647340    0.39954604314304    1.28546636650382
C         4.79093763354237    0.73093248435136    2.62328952197334
C         3.58838619177711    1.23072029855623    3.08842756873620
C         0.29770565031095    3.01090704193503    1.47360505129277
C        -1.04748869601702    2.90514116669996    1.13336132198436
C        -1.56419636117234    3.66088018655910    0.09532975586198
C        -0.74773027352200    4.53344319421621   -0.60460527572879
C         0.59314703389927    4.64299615038710   -0.26981596643229
C         1.11422842898641    3.88749063077311    0.76252471716364
C         4.42131936702718    3.46150256067321    6.57157894491781
C         4.59152547294821    2.08048836235935    6.45937179792015
C         5.85936887358423    1.54288386259406    6.34069451717330
C         6.96836173170805    2.37470913746375    6.32784653775883
C         6.80463384796949    3.74381514731704    6.45283200445228
C         5.53774446666640    4.29031043910604    6.57611309398411
C         2.06084517681840    3.38646503693735    8.19402465497678
C         2.88198509261466    3.04482520185978    9.26125374401651
C         2.32180471308741    2.54451327808177   10.42328598237640
C         0.94931654207184    2.38754614720952   10.52447034917340
C         0.12803274008908    2.73009806596104    9.46181188964661
C         0.68248284663953    3.22691936575930    8.29844241928824
C         2.87991497753549    5.83005558590957    7.00559581699058
C         3.43179671424649    6.67277049964253    6.04143983163410
C         3.57088815049759    8.02461747478657    6.29139536853283
C         3.15488236325655    8.55420080482103    7.50257118731756
C         2.59791446441732    7.72470076524560    8.46090160152118
C         2.45883587942827    6.36946781740134    8.21686297991255
C         5.28863556390530    5.50273621406393    2.00798115397390
C         5.67342552072319    5.98247462042139    0.75922425896316
C         6.97111488326734    5.82314049604182    0.31242297718975
C         7.90665548803857    5.19325641993952    1.11648433789241
C         7.53796847966506    4.73149216958948    2.36930259177247
C         6.23772417980745    4.88198393187949    2.81501720740278
C        -0.09517751379044    6.08769935741871    3.93891217147386
C        -0.91367539453879    4.85441518719693    4.33133342619944
C         0.07331980894958    6.99304594580662    5.16785899026496
C        -0.81369507309959    6.84458824234256    2.81808958059195
H         1.67927997471244    6.43921123822364    2.82197563212676
H        -1.28399405110820    1.81593811496624    4.55800067908264
H        -2.94097523176979    0.00775972811825    4.87551224446851
H        -2.70878794873589   -2.10550311291869    3.62346936039811
H        -0.83496209317743   -2.40962831903046    2.05230398228909
H         0.80711526199851   -0.60509755368506    1.71807532032672
H         3.94312585744917    3.83329746174306    3.51359614641007
H         1.83418748573831    1.20965771518816    0.18842704372970
H         3.97215883201483    0.30129902344996   -0.62728143444734
H         5.86968202109314    0.01565446348397    0.91771116622709
H         5.62164666281152    0.60799600881893    3.30294072021225
H         3.46781050376335    1.48226247834778    4.14404147415357
H        -1.69004236619145    2.22657062218888    1.67876032878144
H        -2.60901554428540    3.57000502021148   -0.16413166150264
H        -1.15562071940161    5.12756631371765   -1.40893397010274
H         1.23406261430192    5.32479200135324   -0.80803367228164
H         2.15890163388314    3.97616279354986    1.02546507292614
H         3.72122457696838    1.43331125976378    6.48625539024533
H         5.98213021625161    0.47266588669798    6.25735996793827
H         7.95920188262502    1.95641302618484    6.22613810377676
H         7.66678381454366    4.39518281516208    6.45196945277410
H         5.42448871336246    5.36024135601495    6.67602982915338
H         3.95373415673505    3.16446395279553    9.17716518439528
H         2.95967847007891    2.27128801913854   11.25138110224100
H         0.51862193980139    1.98944333596443   11.43152934560300
H        -0.94111518884737    2.59777443858296    9.53917328649066
H         0.05431239140499    3.47541094895943    7.44665552216413
H         3.74096883721292    6.26542083156049    5.08913027110773
H         4.00134484972648    8.66435033601697    5.53519415129159
H         3.26156860444717    9.61101853926401    7.69734047145716
H         2.26894876615278    8.13297112989479    9.40538229478376
H         2.01966048188599    5.73064976287910    8.97002298035063
H         4.93413397372955    6.48156355736284    0.14972117852983
H         7.25635599025312    6.19337228630555   -0.66194735346730
H         8.92314039911528    5.06964598684855    0.77118829741669
H         8.26893090956950    4.25282099657264    3.00571435649564
H         5.97317136715280    4.53435602607451    3.80328403890667
H        -1.87763896560803    5.17035218312413    4.72394521196437
H        -0.39128123350376    4.27517751221535    5.11745320994876
H        -1.08484682544145    4.22302778777093    3.45783382473073
H        -0.88996054387249    7.37481093629534    5.49618819426053
H         0.72175140708683    7.83404916721066    4.93428117456770
H         0.52477795478994    6.43067489726848    5.98455512059289
H        -0.90409050228309    6.21158378627966    1.93783176304233
H        -0.25274374923813    7.73528834011523    2.54551058505676
H        -1.80827144288862    7.14524022368872    3.13674986285297

