57
CSD_code = LEDFUX | q = 1 | S = 0 | Stoichiometry = C24H24MnN6O2(1+) | MND = 6
C         3.60989442235697   10.73424076069142   11.37620228647311
H         2.60132917783885   10.37590966044579   11.54074930407168
C         5.67543089445791   10.27916923136940   10.45459463550820
Mn        3.45501917460999    8.42933379689627    9.54048429068935
O         4.92414343204816    8.29564937578741    8.50016423856657
N         4.39000626908027    9.93248354175393   10.63427353335527
N         4.44406276610493    7.13265012120103   10.64241580227073
N         6.51687357952124    9.41950315741504    9.81285994047751
H         7.36347027508760    9.81761547923033    9.44113046694282
C         6.06306037169224    8.15001769980598    9.23641367246522
H         6.89605404212348    7.77290029261655    8.61616372653970
C         5.75818357565350    7.18840278906373   10.38257683977740
C         4.02844188133165    6.33531864255660   11.62512415076146
H         2.96222953027042    6.33403422619043   11.81156660979154
C         6.20003779561053   11.49943050066158   10.95337161787026
C         6.69535127715798    6.45220347874811   11.08243207076061
H         7.74181886038506    6.53138221548018   10.83404561033130
C         5.36034298762504   12.31381965751272   11.67799034153927
H         5.72735012986073   13.24724392048064   12.07687617083711
C         4.89908624274890    5.56498042087314   12.37648254550411
H         4.51694583290215    4.93297177149209   13.16172230587832
C         6.25789272402662    5.62035889883532   12.10374543601142
H         6.96110506619905    5.03161781306741   12.67138934000310
C         4.04416050378813   11.92005708767347   11.91422773204149
H         3.38075220408944   12.52956617261889   12.50427918994505
C         7.63129574466235   11.86800686714112   10.71268936476007
H         8.29990917370231   11.11489661223758   11.12846174878800
H         7.85433806457385   12.82023024659018   11.18558009214349
H         7.83922572019838   11.96446902893311    9.64645262726248
C         3.30012401463647   10.73422009687332    7.70473098505185
H         4.30871220067019   10.37592519459188    7.54024459102067
C         1.23460699302592   10.27918236367279    8.62639895970209
O         1.98589402671786    8.29565001423714   10.58080110563054
N         2.52002325089319    9.93247981327924    8.44669080245869
N         2.46597356830977    7.13264688980334    8.43855924880888
N         0.39315971628014    9.41951054971371    9.26812045055170
H        -0.45343137078312    9.81762159709885    9.63986553168259
C         0.84697671002225    8.15002030002956    9.84455087036324
H         0.01398287387544    7.77289536639047   10.46479326722874
C         1.15185210068615    7.18840299420816    8.69839160140058
C         2.88159492416886    6.33531844435718    7.45585004839753
H         3.94780653898820    6.33403606887752    7.26940987223855
C         0.71000308967328   11.49944854824237    8.12763329632452
C         0.21468348798324    6.45220687931234    7.99853268509532
H        -0.83178501831393    6.53139139150536    8.24691200655707
C         1.54970156597967   12.31384396070666    7.40302551384139
H         1.18268032589015   13.24724491986425    7.00409910868761
C         2.01094971540466    5.56499050886233    6.70448128292470
H         2.39309457096414    4.93296562667491    5.91925735187700
C         0.65214159536490    5.62037163605972    6.97721222220649
H        -0.05106806899174    5.03161818925938    6.40957797206653
C         2.86586546680328   11.92005246083389    7.16673483453877
H         3.52927936791736   12.52957686491212    6.57670487298590
C        -0.72126233474283   11.86800966013383    8.36829337479202
H        -1.38989418234082   11.11491048346817    7.95252552618589
H        -0.94430383933335   12.82023387827993    7.89540391807359
H        -0.92917300945826   11.96446183138332    9.43453300794329

