35
CSD_code = LEDGIK | q = 0 | S = 0 | Stoichiometry = C16H10NO6ReS | MND = 6
Re       10.45464149738337    1.94286464095103    2.48488064773318
S        10.81424520290829    4.10714693562272    3.84950870537505
O        10.25217564230527    6.67827090936035    4.70842869170062
O         8.51411583087385    7.92420370844362    4.03574521708818
O         9.51646568787084   -0.35372705005386    0.60867330082724
O         8.69007447115503    1.34778190936294    4.95940817420929
O        12.07649957138045    3.63766656124142    0.46292357988797
O        12.92061853532109    0.40625656778728    3.56017133023723
N         8.94753824133011    3.57171808970614    2.17475359301729
C         9.39690773399837    4.53168538117845    2.99363435620161
C         8.72456075732804    5.78328713277171    3.11284366457151
C         7.59624332317485    5.99283190626052    2.36420072221828
C         9.26338965622359    6.80854523080459    4.03337911915894
C         8.96575267186930    8.95875466808822    4.89678991318137
C         9.84794932212498    0.50364915020608    1.29586494287443
C         9.33291318223731    1.45568292660593    4.03037582963679
C        11.50947200512629    2.92590294922310    1.14101949620072
C        11.99772642424165    0.91459156545602    3.12448570387308
C         7.83435084879978    3.76310327386340    1.43171265654821
C         7.11510932910039    4.98790911754411    1.49869184224810
C         5.96439248656336    5.15207429224912    0.70957810659265
C         5.51788478917941    4.15475002397054   -0.12460058580886
C         6.23872185315496    2.94832755238747   -0.17772917945373
C         7.36466203760874    2.75233068162535    0.57546992073022
C         4.28785823409593    4.34621199352903   -0.95662470473826
H         7.07005296546468    6.93278045194152    2.43572546827308
H         5.43021792640934    6.08947088803206    0.77163040774896
H         5.89315925524796    2.15970109583632   -0.82985084176377
H         7.91472393673659    1.82244521254937    0.52942526986728
H         9.01180192942414    8.60141690519257    5.92760751173812
H         9.96129507295117    9.29345639193085    4.59788282284081
H         8.24546160738281    9.76722836200257    4.80254529920666
H         3.41736406236197    4.48826895380578   -0.31728649757551
H         4.38634503646914    5.23128880892858   -1.58321471387838
H         4.11110887219716    3.48512281158996   -1.59514977056407

