57
CSD_code = LEDKUA | q = 1 | S = 0 | Stoichiometry = C25H27FeO2S2(1+) | MND = 8
Fe       21.16994403386137    2.20846366067639    2.83539850232522
S        20.38736413911216    3.55031726182106    4.52198507535244
S        17.91110854977422    4.95446057310229    5.50092410253442
O        19.08356510640134    0.20605653822279    2.72879007093628
O        22.71498303093380    0.36585125527699    4.45226418604029
C        19.87169672072101    1.02472184144151    2.81206262651938
C        22.09656876527281    1.11282337311711    3.85862572236971
C        18.54155775955903    3.64580043418985    4.42317883841288
C        18.53054884238536    6.34534725337843    4.55510449168472
C        19.59166995355079    7.08340066009264    5.05294045648615
C        20.08840983202130    8.14403190494955    4.31391354979857
C        19.52510859608920    8.46096165093948    3.08848377525770
C        18.45592898521778    7.72476151995876    2.60273570656739
C        17.95123365065785    6.66498661681171    3.33722147137134
C        20.51717236426057    2.76703025305011    6.12487368954785
C        20.14787314214778    1.44131994475006    6.29152870987071
C        20.22428901245044    0.87334191696596    7.55026629880758
C        20.66807803699912    1.62573231828660    8.62732511567869
C        21.03799430465406    2.94812365897462    8.44922292763605
C        20.96414035144585    3.52676859285261    7.19322136764446
C        22.97068227603666    2.96871898100880    1.82287066499923
C        22.04268881079961    4.03395924955822    1.88603687077045
C        20.83908574863075    3.62617590157434    1.20157240888310
C        21.06138961226397    2.33513192244310    0.65441458746104
C        22.35918628026177    1.89529445030152    1.08295333019082
C        24.39439605036919    3.01257831212402    2.26758155709799
C        22.28729986863818    5.39563516933644    2.43365765817976
C        19.69973631463516    4.53158907960119    0.86852522230908
C        20.17900581221161    1.62334725686515   -0.31332607889839
C        23.05419339431685    0.66692290050396    0.60193421183745
H        18.29333725722298    3.84783929339037    3.38478644272822
H        18.12046474336388    2.70203857281158    4.75828981873411
H        20.01270080729672    6.83285969082026    6.01400207329184
H        20.91249572258588    8.72484884163437    4.69844912009773
H        19.91102422378333    9.29020525023619    2.51614332121911
H        18.00526609920253    7.98147150070843    1.65622949080741
H        17.10467062616551    6.09979262094054    2.97632686490926
H        19.80589492216476    0.86248253262524    5.44396347618129
H        19.93678008022192   -0.15708086103780    7.68844276881981
H        20.72484338020033    1.17741812162201    9.60667799873789
H        21.38183412068239    3.53384742185109    9.28710546151903
H        21.24697032246593    4.55628085250269    7.04110274638777
H        24.76084003465952    2.02109267249137    2.51781577862021
H        24.51759407224840    3.65429579146706    3.13552665512046
H        25.01403352151237    3.40807941521622    1.46198155114966
H        23.10579615468324    5.39323447211930    3.14766596346445
H        21.40096706882023    5.79954815247616    2.91980288285765
H        22.55189016683913    6.06648805388993    1.61512869882367
H        19.54814749080264    5.28190494509535    1.64141074041759
H        19.91419615940750    5.05420560401199   -0.06469507190446
H        18.77813592972259    3.97138841804807    0.72974108033903
H        20.27165967401832    0.54485065659354   -0.21914213023460
H        20.47090553223011    1.89767772668600   -1.32805052781933
H        19.13641318783166    1.89704244696527   -0.17817440242148
H        23.53173929539819    0.87334546010260   -0.35715013730229
H        23.82398667318085    0.34821803755412    1.29921795836758
H        22.35391338774700   -0.15203014285539    0.45951425947740

