81
CSD_code = LEDMUD | q = 0 | S = 0 | Stoichiometry = C29H47O3PRu | MND = 9
Ru        0.81272703592065   13.15481410741259   -0.27859687546774
P         2.62856696000800   13.02028904808186   -1.71597130210628
O        -0.26489801169702   12.55033673116567   -1.92787781438040
O         0.05866258789166   14.62814903556134   -1.49758974036615
O        -1.13738625870371   14.08032177300429   -3.31060321755222
C         0.89629110186493   14.23967122175166    1.74811367474910
C         1.79058965611823   13.15683026704984    1.80944825956185
H         2.80103630494720   13.31968668030765    2.17207769759920
C         1.35366154975837   11.82664060545210    1.54590910460866
H         2.03989553319150   10.99872803298032    1.69714163987851
C         0.02111993955277   11.56915985412129    1.18556053928714
C        -0.88583114972498   12.66586789852950    1.13465970101884
H        -1.93181753274053   12.48452606659992    0.92134187107915
C        -0.45670922822696   13.96449016808949    1.40652033828115
H        -1.17123074114646   14.78097226381062    1.39689666869050
C         1.30662017321724   15.63164294959768    2.13035781978356
H         0.99619326118137   16.34106438204176    1.36491727324805
H         2.38459922736136   15.70302579953023    2.25874708752031
H         0.82618770555398   15.91602263992178    3.06790686164933
C        -0.45794083558096   10.14931307838527    0.99880456093824
H         0.41216484665985    9.53125402567388    0.74696635074188
C        -1.03641206537175    9.64256090687050    2.32595331738629
H        -1.37228802412531    8.61451450192188    2.21471696395503
H        -1.88576639855877   10.25154767950451    2.62922462575838
H        -0.28718582233987    9.67972312742116    3.11483849111272
C        -1.48472608670926   10.02146992406630   -0.12862454246914
H        -1.57175443619880    8.98192230810565   -0.43551539475228
H        -1.18388803256547   10.61703832987587   -0.98949581252853
H        -2.46689408610635   10.35791671547548    0.19575798902970
C        -0.50820033665657   13.78224335595175   -2.31989383127956
C         4.20965693730101   12.88994658969572   -0.71241396234412
H         3.91474733742848   12.23401094720274    0.11957897665491
C         4.56507529189145   14.25584485774290   -0.12780862112610
H         4.96158273424353   14.89119885500759   -0.91964735329067
H         3.66374367721084   14.73127978311878    0.26863331141039
C         5.63808607279975   14.11331691464892    0.94768393816560
H         5.87731313076024   15.09134289974889    1.37061150225096
H         5.27496585523669   13.47684185452219    1.75879120090056
C         6.88937167696467   13.48831794668747    0.33789479264427
H         7.65611145451796   13.35663575056523    1.10391005385968
H         7.29154794124468   14.15866849238872   -0.42476233810241
C         6.55519339923198   12.14191204241312   -0.29656174498212
H         6.22341197394835   11.45028198817632    0.48196025844425
H         7.44990852091530   11.71811392281284   -0.75715595434775
C         5.45394096245756   12.27507925233267   -1.35139405799276
H         5.23997348765462   11.28265473155441   -1.74807573746601
H         5.80970693633299   12.90106942678158   -2.16956679440697
C         2.66887080225110   11.45797757427717   -2.73363117604481
H         3.69590141082646   11.31463022491560   -3.09030023317253
C         2.28667637157132   10.31512779815776   -1.79143701605426
H         2.96695518263941   10.29121693604174   -0.93491432773062
H         1.27507021197380   10.51782616038889   -1.42846968285435
C         2.30978391024880    8.96803494138584   -2.50610923535776
H         3.32660761543468    8.74903355356486   -2.84396573746698
H         2.01150322402628    8.17752548034996   -1.81365648990789
C         1.37099136573126    8.99735944379362   -3.70619133142398
H         1.39326423190071    8.03617007029120   -4.22428139047188
H         0.35119756197300    9.17598648869020   -3.36186069066243
C         1.77893729402158   10.11730245370856   -4.65578349609070
H         1.10542126924567   10.14101581453086   -5.51380910394407
H         2.79017421851343    9.92742570923339   -5.02827185281809
C         1.73607972950550   11.46926195378902   -3.94618354778613
H         0.71753826646935   11.67538492165374   -3.61613977824305
H         2.03048930618708   12.24681684943590   -4.65182101764759
C         2.77652472900828   14.36074632646465   -2.99576279325172
H         1.85862459168631   14.18744448488818   -3.57977616243944
C         3.98368980596844   14.26768340927620   -3.92938624565169
H         4.88851746320686   14.56015080293400   -3.39234645753004
H         4.12240817994938   13.25194043681519   -4.30236985544268
C         3.77619824718158   15.22318331291116   -5.10465524723186
H         4.63183829014809   15.16759102215794   -5.78220838381746
H         2.88679833127897   14.92024499260259   -5.66062866067791
C         3.59607780855280   16.65540002557725   -4.60931051597333
H         4.51698479289351   16.98747125896088   -4.12193575749805
H         3.41187450899198   17.31789832199216   -5.45714748235426
C         2.43901794503169   16.74282749249623   -3.61733098890027
H         1.50324777931693   16.48241874483540   -4.11388593434588
H         2.34759573912165   17.76508481796274   -3.24495653836725
C         2.66595064863287   15.78603316288728   -2.44895431173602
H         1.82558841204549   15.84091834569569   -1.75541713832933
H         3.57667652753473   16.07840693361504   -1.92637119399061

