55
CSD_code = LEDNAL | q = 0 | S = 0 | Stoichiometry = C24H18CdN5O6P | MND = 6
Cd       10.47411310307587    2.78421927950279    3.40359046011318
C         7.59556090751720    6.39239948549019    3.67545203958161
H         6.78978207783489    6.81210218905140    3.09301211713875
C         8.32816099175072    7.16867299441124    4.53976248926194
H         8.12176112474291    8.22331958120744    4.65755864514360
C         9.37087747132355    6.58101051971076    5.27411325099005
C        10.19908564738519    7.32313019650062    6.16264999453193
H         9.99793623791848    8.37754893289793    6.28673562848129
C        11.22908274980965    6.72814105571736    6.81061876152109
H        11.87646970176633    7.29763080246680    7.46163676392208
C        11.50312008017021    5.34246928868403    6.63902312966411
C        12.59321590374049    4.70426507558545    7.25463496935891
H        13.25503547620020    5.27593454030279    7.88922815554967
C        12.80910976777273    3.37241223350930    7.01254266909664
H        13.65201741610126    2.85553702909517    7.44303511697601
C        11.92906116096358    2.68606879781313    6.16764451778554
H        12.07147764150614    1.63390616644384    5.95466585637958
C        10.67967766850794    4.56241815822078    5.79759278696562
C         9.60587794577652    5.19908029869321    5.08294850067344
C         7.92217645028625    5.03832179429333    3.54873265876166
H         7.36639135404951    4.40201385517225    2.86998803281553
C         8.14967002827758    1.04469136856780    2.45693105197862
C         8.55175772199286    1.76442502025325    1.27634749667948
C         9.84333585218369    3.41612723026647    0.35137179776296
H        10.55999029135381    4.20763622166841    0.53455805202136
C         9.41713569761644    3.09207229702086   -0.94146856891519
H         9.80355096597169    3.63872752602951   -1.78731515602094
C         8.51861131119474    2.06620664049877   -1.10951856516098
H         8.17239763903332    1.78051132389437   -2.09291154472618
C         8.05464975741923    1.36605050637578    0.01642128831089
C         7.14216513684272    0.27487353675674   -0.06674235690115
H         6.77780104645175   -0.01050298415142   -1.04294371247072
C         6.75801570077640   -0.39871201261655    1.04278471811692
H         6.07802646389996   -1.23553009950571    0.97532411600606
C         7.25676236409137   -0.04219115588687    2.32909011675654
C         6.92451357955105   -0.74415728237222    3.49870493726381
H         6.25283874606017   -1.58896370597335    3.44019555093299
C         7.47283261533539   -0.35186599577814    4.69589706964876
H         7.24732523693314   -0.87728184107291    5.61076062550440
C         8.34732081612791    0.73948790945040    4.71409646407907
H         8.80498438675333    1.07439901679931    5.63617307141669
N         9.41899082605824    2.77671952759389    1.41779664564750
N         8.66944664022790    1.41473396778864    3.63573147757890
N         8.88726485247816    4.45988825792221    4.22469061319298
N        10.88553920769605    3.25217085806463    5.59842610049984
N        11.36607656566293    0.94679958356154    2.42140121678593
O        12.01127419893636    1.71746100587525    1.73222261336984
O        10.62071310186778    0.13764856107905    1.90691780359359
O        11.48645270844242    0.95965115209958    3.65172531264825
O        11.57588182443713    4.36830012876839    2.94591249770066
O        13.89585370600152    3.98486286923229    2.07073691223682
H        13.64949960433158    3.26353378850585    1.49100393034706
P        12.95531077556945    3.81054637583238    3.42844417290922
O        13.61191430888839    5.11046124225050    4.21843148569068
H        13.77230544333068    5.77751688612128    3.54613621988688

