94
CSD_code = LEDROC | q = 1 | S = 0 | Stoichiometry = C44H44NO2P2Pt(1+) | MND = 4
Pt        9.24135644046186    7.77757640212033   10.75692425716749
P         7.31405841143327    7.22749595083535    9.48319602009181
P         7.77949080860524    8.00407453396658   12.47977223292522
C        10.88088839346311    8.39043131202297   11.79701472741847
C        11.03108528577678    8.55133778876138   13.18739017024487
H        10.19075708017339    8.37603580848779   13.84682868640899
C        12.22546513846570    8.93669446736883   13.72809768633309
H        12.32439393786181    9.05521819060639   14.79730354459690
C        13.34272812922266    9.20040526720518   12.91243884220210
C        14.57084083608274    9.62189228241167   13.46331256807317
H        14.64404749300355    9.72816170919439   14.53567754856321
C        15.64126791029943    9.89435864798792   12.66055928697601
H        16.57858992755058   10.21856157989056   13.08586332215137
C        15.52388146432457    9.75682955650560   11.26968361849472
H        16.37347114550631    9.98062235859765   10.64211160773033
C        14.34842691070065    9.34685310825689   10.70509710931505
H        14.28752060660672    9.26068075866299    9.63112539105262
C        13.22155417022695    9.05043963183591   11.50455431018335
C        11.97403645841328    8.62373700148014   10.98089007584901
C        11.74006673219719    8.46211279027575    9.49557371161300
H        12.65403395509239    8.16987762850200    8.96171602807675
N        10.73012815864880    7.38688607685024    9.31678740282635
C        11.23257126415210    9.80017013384458    8.95204909639601
H        11.21885089138301    9.83141323890350    7.86583792615990
H        11.88523210413552   10.59457273835717    9.30578069037993
H        10.22657376342479    9.99067137719558    9.33643904174504
C        10.30939815499973    7.29372924340317    7.91747992867941
H         9.70566857007199    8.15516262290307    7.63469805899508
H         9.71341543891574    6.39248041588504    7.76950284495691
H        11.18134068856944    7.23769104837912    7.25626711348630
C        11.31552554830062    6.09225216041214    9.69627814468425
H        12.10651749751886    5.80768771433962    8.99329994958416
H        10.54337359004574    5.31999879206990    9.67753049571314
H        11.74586413570872    6.14603876851013   10.69692870208338
C         6.08243807359822    6.66295527394441   10.74761430268938
C         6.01961630960635    7.55486030990503   12.00551229489667
H         5.45476814778413    8.47812897438722   11.85053206681242
C         5.35570224288305    6.57565441402806   12.99248403417057
H         5.88937542569547    6.50100111874554   13.93858767665142
H         4.31910781205547    6.84000440954260   13.19570547389368
C         5.45419007824948    5.25099020911067   12.20367194650214
H         5.59817005933851    4.34652792264505   12.78808047302151
C         4.25420624249328    5.19971370635314   11.23755438663844
H         3.30823428199106    5.39978261130332   11.75579157387790
C         4.64915258160118    6.34237675037840   10.27156701349695
H         3.99322863454106    7.20728806257614   10.34520002005917
H         4.64981814520949    5.97317688793199    9.24555530745194
O         6.54592200324323    5.45251655576634   11.32811882188926
O         4.22817255543602    3.94028013246917   10.62615921755919
H         3.45707735598856    3.86884429509095   10.05330879184842
C         6.50307060680381    8.79156258215200    9.02197028408569
C         7.02106674328092    9.95868641821046    9.57763054140236
H         7.90598854285440    9.90037010274322   10.21080561255400
C         6.42332683454203   11.18052478837178    9.32986613240507
H         6.83123325114712   12.07876489404584    9.76794066923925
C         5.30360474313896   11.24566770803112    8.51673404674203
H         4.83524670169649   12.19700393467330    8.31723520606240
C         4.78645723595811   10.08874312573209    7.95470387515090
H         3.91622644755204   10.14087021846760    7.31810563909642
C         5.37867800333733    8.86392943099769    8.20477632419710
H         4.97209177421899    7.96859410096365    7.75759012657551
C         7.02302314203562    6.10370512712079    8.08723090198203
C         7.10470811805068    6.58246067909494    6.78001879720432
H         7.27340699580821    7.63596292234527    6.60081012388740
C         6.95665126388907    5.71377136798161    5.71477169177758
H         7.00824537405365    6.09131912616722    4.70480472106534
C         6.74288866685469    4.36317634804286    5.94310489429584
H         6.62359703605970    3.68855989751147    5.10940791377782
C         6.68936155726910    3.87951277085511    7.24059204283013
H         6.53056364279135    2.82731014175346    7.42116406391855
C         6.84078797853752    4.74027564352166    8.31304937033170
H         6.80095875570466    4.36074721120311    9.32371127306190
C         7.53398691236342    9.59418527267181   13.31536534565202
C         8.43772314797444   10.62457789741838   13.07797650992290
H         9.26656046692568   10.45691138412867   12.40197320732523
C         8.28061441269846   11.84525751204268   13.70873879710548
H         8.98663121351594   12.64050389861017   13.52461047350216
C         7.21935751009559   12.04458874898243   14.57662149572745
H         7.09780659648254   12.99508968886617   15.07278086335310
C         6.30828335087803   11.02533370931178   14.80538899633236
H         5.47788526937550   11.18359065218904   15.47688429195322
C         6.45813604683352    9.80317951625934   14.17538468130939
H         5.73748307463981    9.01638422206990   14.34925855857613
C         8.27842794352439    6.79494842768096   13.73908723114339
C         8.07068725444386    6.94951141054997   15.10585390582048
H         7.58498388968572    7.83675424085894   15.48811311064050
C         8.51130065616155    5.96900999786822   15.97831699548519
H         8.35249674498209    6.08788633255010   17.03934412541471
C         9.15767010549769    4.84275378929906   15.49527952831208
H         9.49750577253171    4.08301351763095   16.18212760463182
C         9.38101886540817    4.69629015285395   14.13451764387806
H         9.89648368615319    3.82406550911303   13.76239956547719
C         8.94899484223983    5.67273003566722   13.25878383074844
H         9.12027783099387    5.57966280317769   12.18841544344967

