15
CSD_code = LEDWEX | q = 1 | S = 0 | Stoichiometry = C2H8AuCl2N2(1+) | MND = 4
Au        2.92604632658053    2.53205541733467    5.60440987079370
Cl        4.75344626926247    1.56181210423267    4.74892916439285
Cl        3.19432000322611    1.27110609755728    7.43414678431907
N         2.56451334230075    3.81254638559583    3.89680829971853
H         2.70209543760462    3.32777695793517    3.01046118842331
H         3.23740293948511    4.57938569797768    3.91164565832070
C         1.18773550830483    4.33127754589854    4.01198610490416
H         0.49769864260012    3.53825528506693    3.71612868971173
H         1.02981166906694    5.19083393821848    3.35507981355849
C         0.93413335062137    4.72258636555802    5.46225796224364
H         1.64452329030889    5.49364557529450    5.76765943709278
H        -0.07812484198027    5.11966245754624    5.57574054365788
N         1.14509223535710    3.53649173336397    6.31448836668244
H         1.20829007833198    3.79651544290017    7.29824524570858
H         0.35361574892950    2.89704899551976    6.23801287047209

