54
CSD_code = LEDZUQ | q = 1 | S = 0 | Stoichiometry = C22H24CoN4O3(1+) | MND = 6
Co        7.17453265033624   10.14773468331454    8.15937684043237
O         4.19245745335501    8.34887142510587    8.41388178345561
O         5.35225438084922   10.22548369846527    7.93981330161299
N         7.97289472923724   11.96022132742726    7.73501934127024
O         6.42673792615829    8.56821359455496    8.66050604610125
N         7.40595205118628    9.36830252905547    6.37343044522654
N         7.24366932241247   10.76934217255246   10.06502859437687
N         9.02836818504123    9.55781336946009    8.38540931761326
C         9.91944618383313   10.53216155948867    7.75219690203291
H        10.04313127551591   10.26674901673751    6.69628155750574
H        10.91314276310951   10.52825927627863    8.21637838162329
C         8.47322538334272   10.50755808794318   10.55280695071030
C         9.26306090640384    9.45993323450028    9.82410563057537
H        10.32950111668589    9.51922423145606   10.07192253852707
H         8.88205204533594    8.49382382277195   10.17201280563815
C         5.78537477111920   10.70790596231143    5.12267180130576
H         4.94521626414382   10.60855323110865    5.80912583182487
H         5.40634417430881   10.78665516796662    4.10853933645471
H         6.32305693951751   11.61543632952922    5.38502086334640
C         9.31506296624357   11.90657897858223    7.80054220627715
C         8.14187887570376   14.33828053716867    7.73503090601926
H         7.62947164764678   15.28614204838644    7.69498109707509
C         6.41874550108036   11.52855438612166   10.79995101205394
C         8.28892626213125    8.35704768303837    6.43461527942951
C         5.90956341461334   13.28258581060664    7.55513770369267
H         5.42971957299828   12.31260779867682    7.57422534315442
H         5.66712111891047   13.78430234199882    6.61903388562697
H         5.51522710444441   13.90043451811579    8.35886980533657
C         9.09120454441585    8.26218413420553    7.70095197465814
H         8.61307936146157    7.50570422927249    8.33005677790969
H        10.12532193455903    7.95516202153882    7.50257639557807
C         8.44489196321713    7.43599624004841    5.41608984876703
H         9.16365325480537    6.63925335017072    5.51812974815469
C         7.38687014406134   13.16437608357125    7.68673698917004
C         7.64664555485318    7.54850030172212    4.28813661868728
H         7.71511612325312    6.82712041152397    3.48955063918134
C         6.67977242538915    9.52988140476664    5.25793737951680
C         6.86855261382444   12.14369102423151   11.97415197060745
H         6.17822277048450   12.75981185701768   12.52770279140015
C        10.11599240094056   13.03118718970434    7.85370876952086
H        11.18773640230616   12.92957669551474    7.90738137405982
C         8.96629540119435   11.08224881684976   11.70736090688384
H         9.96118940393127   10.84344548640323   12.04630957347855
C         6.77763756164713    8.61689118640070    4.20801123505441
H         6.15816369313006    8.75587842232522    3.33694805924024
C         5.21129935051377    8.96961734348067    8.35092146876672
C         9.51544760412463   14.28202640462840    7.82972999201316
H        10.10970014755785   15.18060296014587    7.87603792537213
C         8.15400002685400   11.94980426982951   12.42450572332424
H         8.51155112555744   12.42897588241794   13.32194405569293
C         4.98065325320832   11.69283223160728   10.46151571293468
H         4.74718805055638   11.36008196773616    9.45792974786621
H         4.66365150623753   12.72273892308271   10.60484415272272
H         4.40332839625036   11.07343433907876   11.15011466114097

