27
CSD_code = LEFCUU | q = 0 | S = 0 | Stoichiometry = C8H14Cl3PTi | MND = 9
Ti       -0.47546630641465    1.90064498869097    8.44427606518249
Cl        1.18199083418332    1.20261704499852    9.69718038544494
Cl       -0.91706242146004   -0.28742306863250    8.05942838681684
Cl       -1.07551480605779    3.19231534042928   10.20503753924347
P        -2.97913254083235    1.66840382962492    8.63724756528965
C        -0.40656187222986    2.04094301440886    6.09579102879865
C        -1.15313319736511    3.15743340080940    6.53255185100069
C        -0.30933946400187    3.96452852466827    7.32625682016586
C         0.95580823043948    3.34455346085053    7.38942561107256
C         0.89529111733861    2.15099589155909    6.62578773691963
C        -3.96902797600107    0.72423261139262    7.40832889701033
C        -3.28371789961383    0.70059859047603   10.16095691554096
C        -4.09102092125062    3.10777149326925    8.90899828195993
H        -0.74672623079131    1.28003100918732    5.40496957522472
H        -2.14747908434707    3.42342238236627    6.19746120924697
H        -0.56172783135999    4.93320862364644    7.73846355201075
H         1.84417546411094    3.75750968971007    7.85240718578951
H         1.72787094115062    1.49175931021729    6.41011718285863
H        -4.98635290747049    0.59263443176884    7.77692985370347
H        -3.99518257343940    1.26975788868783    6.46559606788926
H        -3.50581683638560   -0.24641029399971    7.24442694057136
H        -4.35779959100680    0.56121325039491   10.29633680676264
H        -2.79192250136467   -0.26976118790574   10.07295718687781
H        -2.86937703754164    1.24079374832862   11.01424397313065
H        -3.69470464182107    3.71947147897121    9.71665687086826
H        -4.14348047305269    3.70763378024325    8.00133451768659
H        -5.09038947341528    2.75622076583882    9.16583199293382

