30
CSD_code = LEFDAB | q = 0 | S = 0 | Stoichiometry = C9H16Cl3PTi | MND = 9
Ti        6.91721697480259    3.71499508494483    6.39097364060596
Cl        8.30685129559695    5.40866457871771    5.77211204588819
Cl        4.64357139074382    3.57135810327712    6.47753731844216
Cl        6.80939185618116    3.12518323489511    4.29428275937789
P         6.09344369187327    5.76040983977761    7.53222729693600
C         7.56145708309565    3.18373982772316    8.61938786407272
C         8.72189968197375    3.21736059448630    7.81533843324825
C         8.59579697577063    2.22660127181550    6.82034434829660
C         7.35711991206091    1.56455057004788    7.02003425920930
C         6.72768029747850    2.15185213391221    8.13597984561446
C         7.20265648134758    7.05002706795500    8.26497828269155
C         6.50428246106193    7.86713354686529    9.34421049257588
C         5.00622443977851    6.73199717777213    6.40072351270838
C         5.44740726944648    6.66260824752486    4.94162548064423
H         5.17512596864320    5.66032032960703    8.59412324178436
H         7.40470430580187    3.74637373202835    9.53185104585587
H         9.59331235387241    3.83731295603666    7.98258003319339
H         9.35494774505027    1.95102083139643    6.09756237430281
H         7.00724307262741    0.69432006688563    6.47757176719722
H         5.80535084301478    1.81687890256042    8.59249484206949
H         8.08591890935688    6.54959227410701    8.67320788541302
H         7.54504885194498    7.68619999126721    7.44427915729946
H         6.24089489155409    7.23749706099423   10.19176797085485
H         5.59206130483734    8.32242092385021    8.96347664607750
H         7.15801395495376    8.66118575730725    9.69896684241854
H         4.99787802209309    7.77154172857799    6.74730791528104
H         4.00036503763997    6.31228296408510    6.49963098570802
H         5.48492503586058    5.61973662824401    4.60499511823020
H         4.73784846928756    7.19939103025185    4.31398938938421
H         6.43246142225159    7.10724354308314    4.80593920461669

