70
CSD_code = LEFDOS | q = 0 | S = 0 | Stoichiometry = C22H42ClNP3Rh | MND = 6
Rh        9.93515116622597    7.70012903639362    7.29529405359652
Cl       11.34617292860217    9.47742923142751    7.26555822402945
P         9.81330390093354    7.85201640967906    9.59718859542539
P        11.34573978860411    7.23910363901558   11.09545941451815
P        10.44921415439527    5.25473122329454   11.27902778402630
N         8.56326733916471    6.88422626546403   10.13219260172421
C        10.43150037521758    7.24261320365404    5.23103936639683
H        11.45486590037732    7.58915813211509    5.08633130325703
C         9.43278730326856    8.19991388699608    5.25612863060459
H         9.72162201087763    9.23830803328323    5.09414671664533
C         7.96681300911131    7.93595644999067    5.01098395052532
H         7.80226624971778    7.80359327565210    3.93564325965028
H         7.40870362416446    8.82482214644478    5.31670547910306
C         7.43236242333573    6.71926484294171    5.78684680735571
H         6.36905157754183    6.86932738947215    5.98541479331706
H         7.52256163030378    5.81180944418075    5.18765226666628
C         8.15576170662854    6.52030856327202    7.10148684874550
H         7.53988770934784    6.68450186410515    7.98243116918878
C         9.26255332540216    5.68832908338716    7.24542630681168
H         9.41554753571121    5.21815815778781    8.21900283111211
C         9.91581900730680    4.92310945652333    6.11708417968317
H         9.28307815787760    4.07014189098037    5.84616959740049
H        10.86140048132266    4.51791376453825    6.48588569422053
C        10.19418704141947    5.79158539277622    4.87594623344841
H        11.07817240774442    5.40329722854773    4.36601431914367
H         9.36296147598091    5.73076476906066    4.17165552781902
C         8.75129906202350    5.81536940446998   10.79175118376648
C         9.21042317958695    9.50449551231885   10.25743592488381
C        10.38638735160087   10.46885057331727   10.34979846766191
H        11.13522382730570   10.08997807440052   11.04651037915996
H        10.04620136550267   11.44045506525716   10.70548808926577
H        10.85359209544468   10.59893781092374    9.37693547190436
C         8.17780345187426    9.98681887738719    9.23996262250929
H         8.63347066762944   10.05450823093104    8.24818599698911
H         7.79689348603332   10.96962633272783    9.51423142162212
H         7.34384772869103    9.28692252833527    9.19377416705765
C         8.56954860620243    9.34119737775412   11.63251729971425
H         7.72855845366867    8.65211130207902   11.59142972042290
H         8.20918042386417   10.30607396783415   11.98671389933519
H         9.29778176350599    8.96496462553724   12.34993469767080
C        12.86473857501274    6.81685913711156   10.02768796104649
C        12.54580661507461    6.05643187641728    8.74528293930752
H        12.01644967650847    5.12735290090756    8.96313583599076
H        13.47478317669049    5.80967283789135    8.23198437772024
H        11.93775605429907    6.66934881033124    8.06156489640254
C        13.79392588515481    5.96369417376093   10.89489153285485
H        14.04481932621137    6.47861550879088   11.82121578549367
H        14.72020859830750    5.76199496238819   10.35879475732043
H        13.32548133674073    5.01015373652356   11.13968883350183
C        13.54690411147550    8.14411611612194    9.69923241671211
H        12.91048449970390    8.75736252148593    9.06416780282051
H        14.48184503232062    7.96356174300433    9.17114723235846
H        13.77004548837039    8.69911671228722   10.60984680515616
C        10.30213405829918    5.09997113848129   13.17685964070955
C         9.64940509867477    3.75805715383370   13.51267437885932
H         8.59448767314595    3.74480839617036   13.25572791111788
H         9.73639630079507    3.56468405661048   14.58130916349484
H        10.14536621086397    2.94763339250287   12.97998575497903
C         9.53333715888668    6.25133516500821   13.81641637392100
H        10.05604514657224    7.19216501856464   13.65081190953948
H         9.45900459520385    6.09055947606711   14.89166641168366
H         8.52673494618864    6.34118063453721   13.41460837344419
C        11.73339553215171    5.09087994164811   13.71339036066340
H        12.29922220660178    4.26027788050958   13.29428053239964
H        11.72485932956539    4.98420834799888   14.79722802616710
H        12.24308634862393    6.02157367642835   13.46638835785084
C         7.59191548695849    4.89538842329219   11.01428042958192
H         7.90046949347053    3.85981929715927   10.88422186644831
H         6.79673410177845    5.13203663938476   10.30999135932748
H         7.19659424284957    5.01371786054632   12.02253267667686

