63
CSD_code = LEFKAL | q = 0 | S = 0 | Stoichiometry = C24H26N4O8Zn | MND = 4
Zn        6.10878406331597    2.37741364044222   25.10072349662905
N         7.52300311175857    2.17655041252258   23.71720351774598
N         7.27388611617354    2.71933450037335   22.52177274803555
H         6.31683218522937    3.09381005223977   22.35519518198213
N         5.00854757299754    0.64245063696368   24.85124783162168
N         4.33733130206048    0.28326184405638   25.95069689461900
H         4.59902531465602    0.70485969497506   26.83366669051171
O         7.04912800527122    3.81641306981191   26.24594899105058
O         6.04535569794466    2.08512914878138   27.09034322288164
O         5.18671895659145    2.24062525868159   29.55750926906858
H         4.75878994077107    2.05702321153248   30.40389208162334
O         8.41418452631412    6.67927173678734   30.12710568846826
H         8.80519021053057    6.92712740314823   29.28061979089663
O         4.57877903350763    3.46248153063426   24.66655828603004
O         4.70973585011413    3.47034111565721   22.45131256534105
O         2.43628009143531    4.33134130664350   25.83758086846919
H         3.34080908392784    3.95419761442050   25.74370495432571
O         0.55267789144917    5.77716208895922   20.86608571441972
H         1.18450881102754    5.55112881240220   20.17345883031554
C         9.38886484796778    1.08489438260073   24.88542583517438
H         8.68887251498983    1.11715224008959   25.71734865526128
H        10.30863577873292    1.59052041600371   25.17297428841743
H         9.62751332347854    0.04623710177253   24.65982621795795
C         8.78159495956196    1.74815534616100   23.70493229734048
C         9.34302830229353    2.02183844005281   22.45439855720934
H        10.33870584166210    1.79828571037157   22.13045809125062
C         8.34354596855349    2.64637789083889   21.72340681086846
C         8.33572800762901    3.17498379614445   20.33665441454163
H         7.33366050643984    3.50090896015660   20.07140641657437
H         8.66143148980880    2.40937709309383   19.63503576026454
H         9.01570491136751    4.02122474339998   20.24969035148971
C         2.47539492944206   -1.15373010926636   26.72532816894222
H         1.80966628345153   -0.37536200246327   27.09674882443371
H         3.05724696318385   -1.53007590852849   27.56486995984883
H         1.87413770053324   -1.96135343741266   26.31828524255248
C         3.37132877866949   -0.60480484514129   25.67741907388020
C         3.42788676152609   -0.83012035504868   24.31412998363673
H         2.80409177371487   -1.48328341152999   23.73933904602444
C         4.46679400594913   -0.02198201333657   23.83629321573499
C         4.94274654054398    0.13665940694041   22.43920791904385
H         4.73742416240225    1.14956632653581   22.09527896908833
H         4.43568822209258   -0.56881662696748   21.78705783201599
H         6.01703813536082   -0.02734456250789   22.38383572763394
C         6.58559362654895    3.21176652321676   27.23623544025338
C         6.68935860712518    3.82421281731415   28.58451517389952
C         5.99192979380352    3.32389580407904   29.68984332156684
C         6.13266226439158    3.96780102373228   30.91686696253062
H         5.59430456979380    3.58949737627887   31.77627565102759
C         6.94038119401607    5.07706158292938   31.05707551742735
H         7.04500480888944    5.56999836625462   32.01017390643651
C         7.62928715999363    5.57975123412296   29.95659963467173
C         7.49420973536723    4.94899600776783   28.73171247815139
H         8.00609138042952    5.31481580541703   27.85286741090492
C         4.11813187155864    3.74165192492158   23.50559220379182
C         2.78877543769785    4.41142642935240   23.44975676190774
C         2.02647193455020    4.66376910002154   24.59993970727142
C         0.78135397400983    5.28130337871578   24.45901547524053
H         0.20490602170231    5.46890800848624   25.35107272252495
C         0.30311373588562    5.64601600280819   23.22132902733578
H        -0.65661119755025    6.12620195593982   23.11566163413307
C         1.06095645501567    5.39953079885655   22.07705047304218
C         2.29135253015647    4.78473024532612   22.20115119410995
H         2.90132762214916    4.57783395348076   21.33218702057559

