81
CSD_code = LEFQUJ | q = 0 | S = 0 | Stoichiometry = C42H30O6P2W | MND = 6
W        -0.18913767931016    5.86195309541001    3.91950696253983
C        -0.15468989596444    4.49001491796329    2.52487968835974
O        -0.12616505602735    3.72288946005884    1.66521865923276
C         1.70412147086318    6.26538887925678    3.51272829893004
O         2.79336617519755    6.50333314835765    3.22950006144147
O        -0.79940031401238    7.89801149324048    2.88726423627032
C        -0.92831666310924    9.90013036725191    4.03445613299319
C        -0.73869008040416    8.45982213586084    4.00782155813147
P        -0.56398398545343   10.31975765324598    2.37379657397569
C        -1.98716804865114    9.94837170524945    1.32474670846020
C        -3.16139114780933    9.42670124086453    1.84860137693870
H        -3.22013427961517    9.20043843556148    2.90381854018724
C        -4.23064996681236    9.17852440401489    1.00692922632661
H        -5.14218402053078    8.75926792338847    1.40591298153243
C        -4.12995123202152    9.45827536276480   -0.34646292246093
H        -4.96476550288510    9.25662665990662   -1.00097716488366
C        -2.96142312534692    9.99437628398347   -0.86529720240093
H        -2.88736037664003   10.21383217513606   -1.92018542128831
C        -1.88825785790193   10.24467928429155   -0.03090872036463
H        -0.96919210555700   10.66472120436419   -0.42040140432937
C         0.94245714568599    9.62235181480276    1.64952535011421
C         0.89148565580837    8.55822871235901    0.75518973329945
H        -0.06481524771972    8.18899140574210    0.41476147498945
C         2.06834953317455    7.96052187135867    0.34201301242831
H         2.03064090884385    7.12095492418098   -0.33521733869247
C         3.28816130100598    8.41409098584632    0.81878870456395
H         4.20143519007836    7.92975561302909    0.50857381431609
C         3.33863775618410    9.47302686904155    1.71165593057268
H         4.28798903165258    9.81792662823174    2.09465940069033
C         2.16730810629018   10.07341995813028    2.13443161315204
H         2.19299409527888   10.88509921286060    2.85254139806724
C        -0.46799413861210   12.12689248788392    2.25599477846989
C         0.49158353740099   12.81044995580971    1.52298831966971
H         1.25680144037013   12.26589356353548    0.98765537102257
C         0.46512317036515   14.19406184775599    1.48088951856162
H         1.21564053800939   14.72644313140976    0.91527499015162
C        -0.52018461267478   14.89425590289140    2.15596741502120
H        -0.53423452840879   15.97328981008822    2.12101946504058
C        -1.49478848800269   14.21214832907047    2.86773980139179
H        -2.27093504168394   14.75718098299739    3.38368336737457
C        -1.47075027793194   12.83259565452946    2.91404657501768
H        -2.22526593581439   12.28416378928915    3.46185774383841
C         0.33213859346578    4.47809705799146    5.20402530872342
O         0.64944222895105    3.69902185704427    5.99083228871600
C        -2.13229917915142    5.66663742109005    4.29977008148452
O        -3.25406690629583    5.69133883783560    4.52361687384356
O        -0.46363454700324    7.92119529959524    5.11641457082846
P        -0.31239869208509   10.24893825213908    5.63974683517054
C         1.35011395658692    9.76716929071343    6.18225284534283
C         2.20829228866070    9.03450913391002    5.37529401524700
H         1.88543498399840    8.71584037874463    4.39459984379008
C         3.47118285057713    8.70626457467777    5.83391899487993
H         4.12835487831789    8.12160009092465    5.20818678804458
C         3.87861993543108    9.11697758142065    7.09249306035821
H         4.86113609123522    8.85247024414806    7.45375891388684
C         3.02999913201715    9.86952105093087    7.89052814955867
H         3.35323599850700   10.19596514185323    8.86812969176909
C         1.76699605033872   10.20201701044226    7.43789386130292
H         1.09840669861087   10.79649678204265    8.04792544047797
C        -1.57334997692112    9.67859872876298    6.80218456550008
C        -1.26443063094914    8.89106790445751    7.90318724515878
H        -0.23740447981804    8.62320471488592    8.10341360702004
C        -2.28396611209518    8.42111827571336    8.71122135818334
H        -2.04838146495686    7.79900973573579    9.56167786274485
C        -3.60380333929619    8.72802512146351    8.42158614472903
H        -4.39573878276949    8.34989927042426    9.05062378899859
C        -3.91191762216197    9.50064516126370    7.31343753891159
H        -4.94209828102331    9.72404627858930    7.07709910452015
C        -2.89900595757719    9.97278603563008    6.49922977729049
H        -3.12625997679780   10.55379445627327    5.61390668477607
C        -0.23077202006460   12.06226357991906    5.80562820514409
C        -1.19765372861828   12.82161838345343    6.44927839139642
H        -2.03260636111747   12.33551161358245    6.93346469611064
C        -1.08470515517890   14.20130100433983    6.47975676265979
H        -1.83839023785285   14.78849014749827    6.98364138276923
C        -0.01078972435036   14.82785500123510    5.87124671670605
H         0.07167709378661   15.90407841276854    5.89573143688852
C         0.96480897934959   14.07333568107777    5.23893657391379
H         1.80846145527181   14.55862558065371    4.77118382602410
C         0.85485020367510   12.69757101693376    5.21016634822078
H         1.61785631001441   12.09783460884356    4.73032181025966

