74
CSD_code = LEFREW | q = 0 | S = 0 | Stoichiometry = C30H41NPtS | MND = 4
Pt        0.32005302182237    6.08930856983141    8.81161487405648
S        -0.53160713508277    3.87266861466236    9.55746898105989
N         2.24753879106547    5.19402781534678    8.34370230397894
C         2.41801466022935    7.23301270233138    7.26778144744286
C         1.87880877812215    9.33327910531495    6.52254734549593
C         1.10973095873562    7.57113349096523    7.76640834797571
C         3.47765623222460    1.73198600892541    8.67122762459168
H         3.76015269479395    0.88781508699565    8.06019956786593
C         0.81179132352215    8.84410792861321    7.29268674591960
H        -0.09036202492257    9.39837166976104    7.47887844984321
C         2.71081351940710    3.99397851454321    8.87713830249928
C         2.75526330488597    3.88646516782847   10.27952660970241
C         4.68897425531674    9.39660600185004    5.10697273847529
H         5.67782015012272    9.17472052231454    4.72820836326228
C         2.98239644328834    5.99401970103535    7.64477564639749
H         4.01601240467444    5.74128554713309    7.40300320091201
C         3.18073760198153    2.69579808073292   10.84235349057411
H         3.23791105271800    2.59721241005055   11.91478983864936
C         3.54466967273164    1.62451889814214   10.04588634409610
H         3.88036660125860    0.70359018829829   10.50004870297923
C         2.40120266844092    5.08649657149249   11.12836345774827
H         1.64574148838995    5.69553878436693   10.58368738457994
C         4.18082891171233   10.65142657462456    4.76450746892518
C         2.93085724396777   11.14543373572766    5.13910546791092
H         2.68637362412176   12.13572754343867    4.78740953413898
C         4.51981399473446   12.89218079418207    3.54416942682188
H         3.61015864865412   12.79125733404544    2.95648919020455
H         5.24327749588876   13.43728825578020    2.94068597890809
H         4.31532820316411   13.48822396858055    4.43064407022839
C         3.06014960688656    2.90762034186946    8.06322312468369
C         1.92744537814793   10.57167639803111    5.90390350136592
H         1.04323494422570   11.18425272273929    6.04596860328015
C         2.92329656928892    8.29961888361482    6.50188582429254
C         2.97184761890331    2.98907512386153    6.55507462134086
H         2.46630282607859    3.92183118580575    6.28007497071706
C         4.14496770121401    8.36702088853744    5.85947857459414
H         4.77402371484562    7.48907049947777    5.96176716882238
C         2.15783922011411    1.82761784299230    5.97745786011843
H         2.69383061635682    0.88698855693199    6.07525181070367
H         1.96470228724027    1.99800314398006    4.92005460959848
H         1.20442338360188    1.72982150509077    6.49221228794091
C         5.10724821764233   11.52423106008184    3.90964244318754
C         1.79649371561912    4.71173969424637   12.47960534518726
H         0.99912881961505    3.98268229371568   12.35008059673586
H         1.38075232154854    5.59900849402205   12.95242513009831
H         2.54616523880970    4.29707087045397   13.15030067500540
C         6.40856353378845   11.78319713863227    4.68558761156049
H         6.18798174823497   12.27772764979822    5.62944413744798
H         7.06594827306550   12.42678849691224    4.10483547594768
H         6.94430809845634   10.86371022300590    4.90237445901426
C        -1.40051665893272    7.07358608700126    9.28664185157824
H        -2.23015934313849    6.74284121442068    8.64928972490004
H        -1.35959041819387    8.16047873851341    9.21174238709488
H        -1.65953605438359    6.82938062094615   10.32643398706914
C         4.37198026367859    3.00527359954076    5.93572068874896
H         4.95245557369626    3.84572742814588    6.31041918334840
H         4.30444366827507    3.08856914303181    4.85280563536426
H         4.90708672303411    2.09027329562539    6.18010244331339
C         3.64356476883580    5.96132478865296   11.31985921365353
H         4.42828638132394    5.39897130333249   11.82408077903511
H         3.39959205783858    6.83538875474847   11.91938696496923
H         4.02487989014552    6.30246312119121   10.35980227187270
C        -2.17353988272549    3.85628513699182   10.33432309529129
H        -2.03861582970162    4.11732500679242   11.37912108684649
H        -2.58379583227497    2.85268092837115   10.25429033608399
H        -2.82640341754255    4.57806163539197    9.85367749007190
C         5.41394105508565   10.79741508192975    2.59054800857806
H         5.92905925206525    9.85526267654727    2.75294524568330
H         6.04533261751456   11.42101592544197    1.96117575662019
H         4.48975847208428   10.59106234331101    2.05446026495399
C        -1.03462021017750    3.50079968413314    7.85096537575768
H        -1.77923821090157    4.22050434558903    7.51749008249006
H        -1.43383630972238    2.48918027702613    7.80606983078987
H        -0.14450697553249    3.57579626258909    7.23051855901572

