85
CSD_code = LEGBEE | q = 0 | S = 0 | Stoichiometry = C35H43CuN4O2 | MND = 4
Cu        5.71871331156174   12.18459665522888    2.84424746812054
O         7.50620747441808   14.83518536525830    2.77707247776139
N         6.03032679161847   13.49323296562569    1.60206195397395
N         5.34750905068730   10.95286430174007    1.53405754155422
C         6.72298399512575   14.65961646567185    1.86294122263680
C         6.38769688418863   15.60460234261755    0.76958356925266
C         5.54740622863026   14.97737978600032   -0.08069016092962
C         5.35537398600506   13.62291315003560    0.42415404483399
C         4.76373876527180   12.56408778828178   -0.20259952853592
C         4.86111130273653   11.25269603952865    0.30869798753189
C         4.52789923387186   10.04215430883272   -0.37265378861703
C         4.83657518232234    9.00391977834705    0.47672519143559
C         5.33477718452428    9.58920823905436    1.68265095723480
C         5.71869457091180    8.93956992146544    2.84424860986683
C         6.97633227455136   16.96986049526278    0.73024053225945
C         8.43101675021520   16.92140006126615    0.25615368207704
C         4.94917071983371   15.47946749992253   -1.35093152248075
C         5.80599585248062   15.09482109763653   -2.55974875669146
C         4.00404353537228    9.97519416685568   -1.76860996486569
C         5.13043474804019   10.13311185200025   -2.79270662994804
C         4.71830163496666    7.53749323830640    0.22975305803089
C         6.06303483616342    6.93594637324527   -0.18654128669656
H         4.26555776128751   12.70867992050903   -1.14664624705380
H         5.71869449869007    7.86056238728049    2.84424643051957
H         6.95287594017409   17.38514434268408    1.74069525394951
H         6.38993734446248   17.61225141823911    0.06992245895885
H         8.85891547380461   17.92120023229482    0.24716148753123
H         9.01408605021796   16.29679909977255    0.92789451461006
H         8.49357547736832   16.50606733981585   -0.74772366471586
H         4.86438452841795   16.56644912285112   -1.30302782267440
H         3.94548663743657   15.06614791689256   -1.46619377832155
H         5.34599236541719   15.45172876657467   -3.47848424293923
H         6.79663949203202   15.53471902744173   -2.47472771777684
H         5.91778336084252   14.01490528046238   -2.62221740016820
H         3.26406557790980   10.76424410174434   -1.92006808087389
H         3.50693282201661    9.01651088143482   -1.92714415207395
H         4.73146432560598   10.10521490236015   -3.80422276339234
H         5.64757560686984   11.07859535808193   -2.64661312852052
H         5.85567357582119    9.33015073208906   -2.68448087274464
H         3.98578145677416    7.35728314035405   -0.55889952385386
H         4.36389404478079    7.03934875289291    1.13497045062851
H         5.96628717045250    5.86421969779674   -0.34506013642859
H         6.41113280621283    7.39219359018417   -1.10994885499112
H         6.81295007455928    7.10991984541946    0.58160175823405
N         5.40709310013085   13.49322218422191    4.08643710506095
N         6.08989971978944   10.95286122248287    4.15444095163603
C         6.10261738883485    9.58920469979864    4.00584583383246
C         4.71440012725250   14.65958990069109    3.82557866900624
C         6.08203687608760   13.62290486953140    5.26434970361258
C         6.57628894333412   11.25268691115996    5.37980509872997
C         6.60081751792167    9.00391041188180    5.21177064283131
O         3.93119831032624   14.83516408560525    2.91142851785783
C         5.04971988182364   15.60459694553023    4.91890651737836
C         5.88999683979545   14.97737137440546    5.76919211446402
C         6.67366487154129   12.56407699136622    5.89110660619498
C         6.90949318712703   10.04214056390485    6.06115465815676
C         6.71909115132965    7.53748227028581    5.45873506602352
C         4.46107923429187   16.96985359594636    4.95823805215914
C         6.48821241246148   15.47946002130338    7.03944317668978
H         7.17183380713648   12.70866375208755    6.83516056595626
C         7.43334489803620    9.97516943184515    7.45711168164416
C         5.37436138105200    6.93592786720179    5.87502984187220
H         7.45161521847453    7.35726822465981    6.24738342646967
H         7.07349611673446    7.03934428171443    4.55351318111157
C         3.00635460933245   16.92137015400339    5.43220483826259
H         4.48462432400848   17.38516499966217    3.94779305685139
H         5.04741526106768   17.61222986703424    5.61862490465610
C         5.63136268548255   15.09484733500004    8.24825116616480
H         6.57302791139206   16.56643922464086    6.99152594537626
H         7.49188425198086   15.06611932273173    7.15473081800491
C         6.30695737840693   10.13309061241665    8.48121183195093
H         8.17332980283945   10.76421140214938    7.60857483889295
H         7.93044724269869    9.01648087069915    7.61563991645277
H         5.47111404739747    5.86420075502652    6.03354289749308
H         5.02626486630626    7.39216832687187    6.79844125690472
H         4.62444206445578    7.10990162809953    5.10689069173927
H         2.57844494922525   17.92116486668654    5.44117812786463
H         2.42334803356303   16.29678210129919    4.76039638001364
H         2.94369483299001   16.50601452255327    6.43606959589081
H         6.09134992630229   15.45175749873451    9.16699501479081
H         4.64073179178624   15.53476727328142    8.16319468509380
H         5.51954876095244   14.01493374509883    8.31072776966250
H         6.70592890679452   10.10518048324253    9.49272728708170
H         5.78982551427201   11.07858020582021    8.33512717808591
H         5.58171115061676    9.33013744995432    8.37297976235209

