73
CSD_code = LEGFEJ | q = 0 | S = 0 | Stoichiometry = C33H33CuN4O2 | MND = 4
C         4.74259508520476    9.61031775984901    9.28835704131761
H         5.10866057437503   10.48101159024592    8.70946409572654
C         4.51752754700142   10.07533016835589   10.73420449452703
H         3.70189804208401   10.80174477069733   10.75339510106332
H         5.42674720536157   10.56669692418184   11.08729072542963
C         4.18389404127495    8.91939177878549   11.68812316079994
H         4.17506985128334    9.32663352662995   12.71831520332679
C         5.27968807988027    7.84968010133460   11.62303570051510
H         4.98068927110048    6.99313491608178   12.23133962574435
H         6.18976068610207    8.27413606314441   12.05322396963956
C         5.60378365732521    7.35950829133888   10.20518442715094
H         6.55617624964905    6.79671871373498   10.26445663362405
C         5.83322848923120    8.53435040824749    9.24450896317050
H         5.91240529437501    8.14598571113197    8.22662971578597
H         6.78286332175712    9.00721436139358    9.50533454774373
C         2.95969927911189    9.78460828203413    7.77448399716898
H         3.46145840323656   10.65887044342712    7.33499688296755
C         1.68282107245300    9.43449908757178    7.24649337419093
H         1.16394050109016    8.64381009013741    7.76314734532533
C         1.13262031034137   10.05825549365413    6.18707665418550
H         1.69484948171074   10.84634741416164    5.69512300980347
C        -0.15944923314332    9.76846518817474    5.60713838160417
C        -0.55117528250896   10.45962052723447    4.45457576794131
H         0.11656393866484   11.19444137031142    4.02550744513069
C        -1.77089310634353   10.21281698395953    3.85771044347789
H        -2.05491102634883   10.75391274409779    2.96648384363479
C        -2.62946474755172    9.27066124999857    4.40186178712977
H        -3.58387391289678    9.07528563867787    3.93504998158952
C        -2.25787424308753    8.58198711278684    5.54649134885218
H        -2.92506036288694    7.84798417649371    5.97308378885043
C        -1.03869578831032    8.82248623387270    6.14837690858466
H        -0.77401690410260    8.27593813006465    7.03984059955241
C         1.92887327996299    8.51417255981583   12.19171426801157
H         2.09741072761159    8.97928323939758   13.17372937496393
C         0.59921421545183    8.10013129695728   11.88747484797867
H         0.43882485295474    7.74907336320063   10.88151162823845
C        -0.40999694224336    8.15925943488837   12.77733702013192
H        -0.20071320051958    8.51376167945830   13.78214602361777
C        -1.78091783613616    7.77070777301137   12.53325208219809
C        -2.69305939213371    7.81505190542991   13.59419758256581
H        -2.35543968677142    8.13973375105214   14.56914751283134
C        -4.01079382782310    7.44588497731786   13.41472673373874
H        -4.69975242016861    7.48345343666613   14.24639566871756
C        -4.44834699136159    7.02685432723505   12.16819171493811
H        -5.47913890771224    6.73648499872206   12.02630573202424
C        -3.55798856838230    6.98288691012018   11.10619300186736
H        -3.89614266833294    6.65756914128653   10.13373901716173
C        -2.23788194009185    7.34908777004928   11.27853274490092
H        -1.56598527459425    7.30904139709314   10.43563552640546
C         4.87321266694910    5.28099521489031    9.42807627630971
H         5.90969004198257    4.93723395491952    9.56045072230194
C         3.94280168497179    4.32182626367281    8.93847875539194
H         2.92120319651307    4.65157803127308    8.81329711485729
C         4.31855802180851    3.06008385417944    8.64502066976648
H         5.35888665882943    2.78062313710437    8.78832155675543
C         3.46758895458143    2.00506040926581    8.14493654538127
C         4.03059078289460    0.74858801069536    7.89059267179414
H         5.08567762162692    0.59414583063663    8.07242410316999
C         3.26010204600583   -0.29180781556982    7.41248332355157
H         3.71187317696875   -1.25480649059269    7.22166816475549
C         1.90761318302527   -0.10003851398728    7.17761939780551
H         1.30315396130635   -0.91347156552429    6.80332641322192
C         1.33593984147036    1.13877391414268    7.42502041639688
H         0.28241062143538    1.29041917508620    7.24283259415630
C         2.10006253053709    2.18498852612877    7.90320671200869
H         1.63651412711806    3.14007310430087    8.08882971138732
Cu        2.73800049722933    7.36678284135468    9.53877069753186
N         3.50692922674883    9.14223961211393    8.72992158305369
N         2.89261539215400    8.38319069255719   11.36773701688900
N         4.57123518415876    6.48876263541037    9.71499310642857
N         1.08314382688651    6.44222084643062    8.89157701807605
O         0.02092020043504    7.11602043105524    8.81810220596797
O         1.02068535927498    5.23903468696159    8.56557777718834

