83
CSD_code = LEGFOS | q = 0 | S = 0 | Stoichiometry = C28H50CrN4 | MND = 4
Cr        5.47392963835025    6.64291101343084    6.24565652705711
N         6.96034568973533    7.73769787016559    5.41845256850331
N         3.98744273666049    5.54833452929509    7.07337145489653
C         3.47256731307297    6.64306127269286    7.61851611391349
C         3.48394046179773    4.24572136220412    7.45898268681555
C         4.30298614122135    3.65639854645091    8.61999518250244
C         3.82296763257105    2.25518943514557    8.98440584251565
C         3.88077691710728    1.33384034720043    7.77046196265505
C         3.03098758042338    1.90203568784186    6.63802755411257
C         3.51028636317480    3.29894690828819    6.25667042450415
C         7.46910331356038    9.03984542241171    5.03813757881579
C         6.65099170007987    9.64013046510803    3.88220466778694
C         7.13700226157029   11.04163493372203    3.52687067024990
C         7.08615221034600   11.95570874398114    4.74657359897724
C         7.93571619351887   11.37600262278161    5.87327277860860
C         7.45112799475704    9.97889450217004    6.24671361437846
C         2.42112924196286    6.64296814408153    8.71231193896683
C         7.47391072892336    6.64293869056159    4.87239007138825
C         8.52225047182059    6.64298866389979    3.77670542813941
H         8.42460080776572    5.76634608183199    3.14320477014182
H         9.52069017794661    6.64269111666525    4.21654563670753
H         2.43322847102611    4.32551422520955    7.77910658866045
H         5.35354240174844    3.63103371617999    8.32628907300771
H         4.22884122865297    4.31415272949050    9.48966587956316
H         4.44051758457803    1.85183214010871    9.79036867034495
H         2.79283317434001    2.30621513551143    9.34736982286779
H         4.91666427073931    1.23864419017646    7.43780698518644
H         3.52333239862033    0.33782363903947    8.04168945116212
H         3.08009481826211    1.24448403993890    5.76677305603559
H         1.98743068441525    1.94839650089437    6.96013527806106
H         2.88068579818168    3.71484664542955    5.46700570103818
H         4.52987611216349    3.25081661081423    5.87960727507039
H         8.51853074263037    8.95627793384635    4.71475606056577
H         6.72200102275411    8.98770780495539    3.00814928359052
H         5.60069416471296    9.66789440906880    4.17651377677241
H         8.16597832903706   10.98805998698594    3.16099602225739
H         6.51963598941745   11.45337165464477    2.72515692380564
H         7.44795308402849   12.95165262136771    4.48088516830301
H         6.05151119875899   12.05375052984188    5.08219373475575
H         8.97855541777013   11.32730695002351    5.54915541053672
H         7.89085573578726   12.02807917329193    6.74882095045313
H         6.43326610729812   10.02894766138473    6.62832634059822
H         8.08171326788891    9.55454966097524    7.03107125902674
H         2.51889433904399    5.76786400530281    9.34737986947482
H         1.42395517503279    6.63950446196046    8.27026252539410
N         6.96028221327382    5.54812420156191    5.41826500465009
N         3.98741823122136    7.73764886611170    7.07320691761555
H         2.51532406219538    7.52111174093407    9.34387593242258
H         8.42495198409491    7.51995544227370    3.14360477564966
C         7.46870617499514    4.24598742148651    5.03747636911363
C         3.48349987828697    9.04032383717009    7.45827623530368
C         6.65018598657452    3.64611855733042    3.88162098256705
C         7.45086082594775    3.30655596789394    6.24574828523485
H         8.51806103203842    4.32945099721094    4.71384658283806
C         4.30163860606137    9.62997904981190    8.61975516866242
C         3.51071586692737    9.98687165185804    6.25579011817597
H         2.43257335157969    8.96026334878976    7.77775916805315
C         7.13599720087327    2.24470478229115    3.52566990375939
H         6.72094549552080    4.29881759954902    3.00775533679928
H         5.59998223574935    3.61831701345399    4.17626891085981
C         7.93533267854083    1.90953873065397    5.87182636029176
H         6.43304122544319    3.25640752539071    6.62744970523528
H         8.08156078203322    3.73061732424754    7.03016012370628
C         3.82131874637281   11.03131123907623    8.98339253455189
H         5.35243678006324    9.65529149842012    8.32685260137410
H         4.22676936668062    8.97241129263187    9.48951300954185
C         3.03101558502311   11.38383623138409    6.63645341634839
H         2.88182475726009    9.57075540989471    5.46567976832869
H         4.53061557389897   10.03511524883223    5.87954014153151
C         7.08545781420251    1.33028357329071    4.74513324894851
H         8.16488308529661    2.29834699332810    3.15955415960511
H         6.51840028079931    1.83326046824604    2.72397985068924
H         8.97808573564473    1.95831052140067    5.54744985256732
H         7.89067320908420    1.25719751680296    6.74719381096633
C         3.87997919782031   11.95243328933916    7.76931410715329
H         4.43825598509745   11.43492531687286    9.78969251752421
H         2.79091935010587   10.98035373139993    9.34561274046570
H         3.08070672802990   12.04115899173672    5.76506144401460
H         1.98722714265382   11.33752642535443    6.95781190416377
H         7.44715588617300    0.33441642322239    4.47903531986889
H         6.05090344161732    1.23215705436322    5.08099708943792
H         4.91609297131417   12.04759780968913    7.43735288408795
H         3.52230343825512   12.94850412033590    8.04006753972816

