42
CSD_code = LEGKAJ | q = 0 | S = 0 | Stoichiometry = C17H18N2O4Pd | MND = 4
Pd        2.83580841417501    1.40364618506421   11.54271903628878
O         0.90267345533283    0.93470241200192   11.81180205413088
O         3.36959453698411   -0.29103165091711   12.48153419665597
O        -0.62545450660300    0.25050426706472   13.24301110848297
O         2.89148900540052   -1.69785903888678   14.10754686268937
N         4.73553734070594    1.74190849238658   11.06790313082632
N         2.19827802008212    2.98336723126366   10.43915345525536
C         5.02533348138271    1.39760064243218    9.80789691528171
C         6.31839543752872    1.50320909020380    9.31712751551661
C         7.32535390546797    1.95652036822955   10.15564796500389
C         7.00731629433968    2.29130335071126   11.46014308156361
C         5.69210638967267    2.17172504889649   11.89294180143183
C         5.28228511380329    2.52554446620800   13.28713362006011
C         3.89240413351407    0.89999215332534    8.94485319523387
C         3.09614110380521    2.04095567455221    8.28438814307630
C         2.17649183970088    2.92739941652220    9.10332409760938
C         1.32973671059157    3.75400598456611    8.36716709415034
C         0.50366583531376    4.65136818688250    9.01617977153184
C         0.56456395653387    4.71965995790331   10.39638569435595
C         1.41883468487603    3.86708907168999   11.08118513292653
C         1.48323717048148    3.91986410457059   12.57588007841554
C         0.52897866628535    0.50403171423215   12.96376504491103
C         1.64209603457900    0.35220452473120   14.02944953038292
C         2.70208506773102   -0.65232045210947   13.52189058374052
H         6.53563465231495    1.21977970635037    8.29930169566147
H         8.34069856626122    2.03694427066045    9.79980177186015
H         7.76749699918565    2.63460989088149   12.14343312859151
H         4.87422319394110    3.53916213358895   13.31057908692557
H         6.13282588526607    2.48474239260702   13.96232887243639
H         4.51795755988988    1.81919082290544   13.63268975646515
H         3.21354452750555    0.25170504437337    9.54059460389214
H         4.31449547812206    0.29748398931080    8.13741641549361
H         2.47669909142959    1.59450953130447    7.50202075300824
H         3.80818454578235    2.70867586821430    7.78430890046732
H         1.32340739495347    3.68454082100505    7.29055107332965
H        -0.16642322203100    5.28725316204051    8.45906402084805
H        -0.05286006051008    5.41172512764176   10.94600580357974
H         1.34527848964374    4.94007705782509   12.92942252219110
H         2.44382127947383    3.52464403741368   12.93921847669745
H         0.67481255660233    3.30803773421314   12.98491542578062
H         1.20403853140981   -0.01932181925787   14.95570636577015
H         2.12081243907599    1.33184902739640   14.19961221748014

