48
CSD_code = LEGKIU | q = 1 | S = 0 | Stoichiometry = C22H18N4O3Re(1+) | MND = 6
C         3.24447398623925   -1.06819168228637    9.36466637127095
C         2.40341047248769    0.97130281190876   11.07474370813918
C         0.63285659205322   -0.09861121315791    9.19941398030484
C         5.17329825411067    2.11114136054935    9.70287703074055
H         4.84850739142960    2.08373222821240   10.73448334779286
C         6.42226579227384    2.64234318211174    9.37555095339361
H         7.05426984370702    3.02653574046065   10.15927665507143
C         6.82638892049535    2.65854472451230    8.06167601979387
H         7.78811701813810    3.05492909376797    7.77499175023484
C         5.96567882417703    2.14090759542559    7.07897414323502
C         4.72182310125508    1.62871575168233    7.50478215411905
C         6.29575613354954    2.10509578852055    5.69348393708968
H         7.25275491844960    2.50046638913796    5.39044069862193
C         5.43864059793933    1.58428207614753    4.78228220707156
H         5.69540261840352    1.55390027101370    3.73483427246314
C         3.81473925612632    1.07951416873861    6.54079336808903
C         4.17640952442780    1.05471976130790    5.17723053155161
C         3.26054964129517    0.49294518081203    4.27174653359619
H         3.50386876669695    0.45178694325032    3.22136174534037
C         2.06975287918501   -0.00049204917360    4.74963165266647
H         1.34271855220769   -0.44333314904372    4.08890930327549
C         1.79931339446999    0.06624700221173    6.11759336376457
H         0.86993282272438   -0.32806371736840    6.50700254555970
C         0.98483414898032    3.61962902348844    9.80416278033378
H         0.75962512720313    4.63114897848090    9.44493837457128
H         1.71526290695034    3.70088289695193   10.61345370566562
C        -0.29942004107605    2.98144888058214   10.33429126100956
H        -1.05348347652237    2.96241585818564    9.54438930164600
H        -0.08809128117651    1.95361909473822   10.64313300903870
C        -0.81345047192844    3.76640483139478   11.51170297744057
C        -0.35645561212930    3.50104298376666   12.79689557808300
H         0.34923499599846    2.70506493211287   12.97895494950400
C        -0.83795708865198    4.27070758289851   13.84524802114088
H        -0.51228600541788    4.09463532584782   14.86125561376030
C        -2.14698699768041    5.50233993557978   12.46596810221483
H        -2.86343814538739    6.30801001894331   12.38183567519651
C        -1.73151374725990    4.79528861515848   11.34674971574208
H        -2.12476623527442    5.03732580249649   10.37076141879247
N         4.34000282384166    1.61860969541725    8.80277771241690
N         2.63780513379712    0.59090577606242    6.99443387924039
N         1.57939106439985    2.81239900350049    8.71543859366423
H         0.86619612795586    2.72687189540134    7.98535363519063
H         2.33719688337606    3.36451726484137    8.30551105033860
N        -1.70910539193001    5.24960577112348   13.68467040771847
O         3.75941528733267   -2.07955215314584    9.44458346752800
O         2.42929732086708    1.17012238132745   12.19817820464254
O        -0.40904299626217   -0.56259372604705    9.17780274333934
Re        2.42040636815768    0.69273107215125    9.14146354859691

