94
CSD_code = LEGPOC | q = 1 | S = 0 | Stoichiometry = C45H45P2RuS(1+) | MND = 8
Ru        3.61525581856393    0.02209058350719    4.13025486413897
S         1.68479477195817    1.39657707984303    3.32810030363881
P         2.39198322896821   -1.51736341575510    5.38392928620417
P         3.56371689265640   -1.02520818710989    2.03972824666500
C         0.58539356611026   -1.75404518420675    5.26043131652598
C        -0.12678998163773   -2.36360853099093    6.29107533075782
C        -1.48545505999023   -2.57718773353242    6.15472660821579
C        -2.14174254367394   -2.19505008938677    4.99446757553133
C        -1.43572985953208   -1.59123971678276    3.96784541475610
C        -0.07723901185958   -1.36757718073918    4.10378013526346
C         2.95818628241999   -3.24715869714817    5.29490120053204
C         4.22711963010549   -3.56241152549257    5.78382851825623
C         4.69459440151818   -4.86201725113470    5.72769579796332
C         3.90917555383636   -5.85621038505747    5.16371865835158
C         2.65866397311084   -5.54452663756870    4.65754812353346
C         2.18044336829521   -4.24649170248779    4.72042628740795
C         2.52032616539515   -1.17015084626056    7.17773862680155
C         2.30107501960498    0.14436323936929    7.57689905080245
C         2.32874722353559    0.49727552003257    8.91181239655764
C         2.58121399444757   -0.46944703212479    9.87171414834569
C         2.79000034508343   -1.78281125590392    9.48644168097998
C         2.75448430090203   -2.13865424800596    8.14863692363662
C         5.07947846851002   -1.99132804037997    1.73483761586643
C         5.39828475161889   -2.98846988170864    2.65354295631823
C         6.52854303888829   -3.76512013230271    2.48462659491568
C         7.36530440956449   -3.54067643976661    1.40296730298855
C         7.06620446495812   -2.53549432745897    0.49876549409123
C         5.92942732908016   -1.76123665331369    0.65829433745980
C         3.55602055832601    0.08062837714233    0.58013481353120
C         3.25873481672020   -0.43709888444290   -0.68103695746188
C         3.30314190388095    0.37730255813437   -1.79654128030024
C         3.64905593324036    1.71436401846594   -1.67464600778686
C         3.96453119729290    2.23130362503075   -0.43035538728265
C         3.92173063003036    1.41674457894452    0.68800124821676
C         2.23205914079050   -2.17495142527872    1.55164041445338
C         2.35311592298994   -3.55684666216547    1.61947227891211
C         1.28835443154036   -4.36244422994082    1.25092230349052
C         0.10165297532576   -3.80012229647094    0.81449786196487
C        -0.02190867814636   -2.42130718412775    0.73787024037109
C         1.03411165923217   -1.61198302501872    1.10765310779324
C         5.18058941127965    0.14396069221886    5.80221310949743
C         5.77502221242715   -0.34592943623881    4.60880621937098
C         5.71105928170115    0.69640945154423    3.63789532679375
C         5.02684600449418    1.78520426459124    4.21193604170005
C         4.69191241659568    1.44304340931735    5.55612982354628
C         0.65653846968479    2.61913676938306    4.33489716545968
C        -0.06990251993095    3.46779481679294    3.30235904136636
C        -0.32435053468066    1.80427340146758    5.15859799595072
C         1.57317442810819    3.46257617431738    5.20056272106347
H         0.38022652774599   -2.66978750958963    7.19446132907998
H        -2.03570700813113   -3.04684033393980    6.95575323464141
H        -3.20212700139765   -2.36827728110404    4.89329807842646
H        -1.94161407322172   -1.29483342794665    3.06123473466840
H         0.48826654264857   -0.89546124652094    3.31290415804510
H         4.84233372516747   -2.78160050712137    6.21232345592978
H         5.67069189025661   -5.10081708203005    6.12326357955146
H         4.27323568030741   -6.87124085933779    5.12016566235338
H         2.04689014522202   -6.31634336796269    4.21567629599577
H         1.20242458589726   -4.01085459455645    4.32685866943983
H         2.10998650486547    0.89097314287518    6.81720798388690
H         2.15532065486926    1.52157750454819    9.20635004311744
H         2.61227072446762   -0.20016091224544   10.91608145330838
H         2.97962080409317   -2.53977100126362   10.23239898102794
H         2.91141130458109   -3.16985242782336    7.86814259616596
H         4.75468233611720   -3.13865381897486    3.50870375832463
H         6.75715181459434   -4.54145109938615    3.19991242445870
H         8.25130215538914   -4.14208174513335    1.26951923240013
H         7.72173707938343   -2.35055180495009   -0.33886427458436
H         5.71324403014510   -0.98079481473715   -0.05625045103098
H         2.99975037905521   -1.48086570411237   -0.78642923469178
H         3.07173368209585   -0.03404776052027   -2.76726876038363
H         3.68031000529706    2.34754897601564   -2.54773771345590
H         4.24960253096679    3.26835848962610   -0.33147959330959
H         4.19171704039992    1.82106566630503    1.65397032085854
H         3.27976263568173   -4.00888323343399    1.93943510219105
H         1.39294759662265   -5.43593009905239    1.29828144383261
H        -0.72275206250198   -4.43325408715081    0.52439474801365
H        -0.94030558188143   -1.97924920817311    0.38183231061920
H         0.94746487793469   -0.53424299496371    1.03584730264468
H         4.33474640901091    2.12952025651807    6.30970878755842
H         4.93081695741495    2.77481742426016    3.78216504859979
H         6.21175916064268    0.68535585145466    2.67918314404703
H         6.36846487273915   -1.24530918808448    4.51873003006778
H         5.18913603333636   -0.34835041735346    6.76542676028790
H         0.62645557018238    4.05923581623006    2.71168561706861
H        -0.64995436520963    2.84125642932720    2.62951852652760
H        -0.75073870376982    4.14874795950270    3.80828498269683
H         0.18942863625177    1.08423499258220    5.79268510079316
H        -0.90943727872160    2.46586480987918    5.79329467033592
H        -1.00422125946727    1.25529546527022    4.51191376493105
H         2.27151357619896    4.03724190042966    4.59426297182780
H         0.97900871956158    4.16290812927992    5.78440508585578
H         2.13724725610030    2.84222027152954    5.89263949071432
H         2.40184468577258    2.36870311996242    2.76176427003527

