44
CSD_code = LEGRAR | q = 0 | S = 0 | Stoichiometry = C17H22HgN2S2 | MND = 2
C        11.68287204346866    3.50806892827333   20.16363622445049
H        10.86983051682711    3.50367923922606   20.88608986752711
H        12.28373364212315    4.39906223907063   20.33148670509939
H        12.30040807338424    2.63008680630168   20.33938123650359
C        11.11036584165382    3.49614256673400   18.74698753392502
C        10.24226264618898    4.74032206176915   18.52437084846341
H         9.85686554360692    4.74546728765578   17.50837491084790
H        10.82742003843965    5.64487160121896   18.67777309682268
H         9.40639499735627    4.74487863869767   19.22004863407203
C        10.26269947711464    2.23574003709940   18.53740775004326
H         9.87533732216732    2.21510353080434   17.52237911946577
H         9.42853177438612    2.22340731842319   19.23505487452857
H        10.86329866884246    1.34254261837012   18.69743773234534
C        12.20039124289765    3.49967197162683   17.70808642755546
C        13.55140625848266    3.51691741708425   17.91106047477937
H        14.09299482375556    3.53129274218408   18.83397091112047
C        12.85656911558606    3.48867916569659   15.60638243501514
C        12.77679632240267    3.47513236961469   14.18926452043733
C        13.44869755818597    3.46063568389147   12.09178187462314
C        14.51404819529483    3.45714960490862   11.02502617282392
C        15.89192179955715    3.47326990620409   11.68972291783587
H        16.67082040972737    3.47011912951696   10.93071567988823
H        16.01616648641722    2.60172799957887   12.32649467524475
H        16.00466220100513    4.35999614490321   12.30737371052544
C        14.37211223021682    2.19243152621011   10.16931384275270
H        15.15265761301544    2.16910122536089    9.41214936616085
H        13.40499574193823    2.16967092661707    9.67217948997717
H        14.46570393966506    1.30304794645916   10.78900204765784
C        14.35556542887989    4.70203400333251   10.14349917721071
H        15.13737929711867    4.72127156858017    9.38754077598046
H        14.43486347311472    5.60507122423096   10.74514973265762
H        13.38932518298220    4.70060692052072    9.64412599879659
C        12.08073808034982    3.45002768803978   11.87081872873074
C        11.38839424317276    3.43805684570503   10.65550307182111
C        10.77016148443843    3.42642272032168    9.60730647550573
C         8.49919488624168    3.45526545252742    5.77185140891092
H         8.02530957441296    2.48904439221475    5.58631461782552
H         9.13541911412616    3.67884959894796    4.91315136080281
H         7.70872268479668    4.20837104582286    5.79947436857715
Hg        9.67547296976618    3.43605321820238    7.70791414228679
N        11.84106970310074    3.48439116056534   16.40466638832618
N        13.79388462155162    3.47452967654850   13.38791291748665
S        14.41131369070309    3.51342921060931   16.42180291007323
S        11.21992104153708    3.45785864033435   13.38381484451434

