63
CSD_code = LEGTIA | q = 0 | S = 0 | Stoichiometry = C32H27ClP2Pd | MND = 4
Pd        2.35957530689697    3.36728046510507    7.78520739204060
Cl        3.25155304005570    4.95081094283891    6.36771083808259
P         3.26521606281854    4.16447951430095    9.64502021085807
P         1.23000683755107    2.14602678652747    6.29101213340275
C         1.53841756232533    2.04980078487088    9.08130860485675
C         0.95256989024834    0.86273217852453    8.62794975551405
C         0.36643639872298   -0.02278564699041    9.52292116383545
C         0.36226325219415    0.25081732532741   10.87815870379733
C         0.93724138235885    1.41941774842133   11.34253767395094
C         1.51393559794842    2.31851825615439   10.45541198569738
C         2.10774946106408    3.60891044625617   10.96549210104955
C         0.96893509856118    0.54144270701762    7.15379744265096
C         3.65559458928764    5.89124961713507   10.02666842701613
C         2.61969489637142    6.79476043333970    9.79785690537535
C         2.81878159739562    8.14590295216066    9.99870764584211
C         4.05975410283157    8.60317949372250   10.41579174595420
C         5.09871172553141    7.71036039868417   10.61804318330220
C         4.90485124873827    6.35432330418378   10.41838180141317
C         4.75957071657217    3.17954880308650    9.94340719791921
C         5.22122969427285    2.41464382308651    8.87304447947841
C         6.33714195983116    1.61165483745196    9.02742415018426
C         6.99284813997401    1.56746803107455   10.24747978988236
C         6.53334027022477    2.32261514630081   11.31509930948864
C         5.41809029103880    3.12742621356393   11.16783635308070
C        -0.43903733522107    2.87776312437236    6.28936087447770
C        -1.49779869590925    2.30703957794526    5.59182934119029
C        -2.75108016896126    2.88871967641109    5.64449961949686
C        -2.95144055200636    4.04206600510624    6.38636655000482
C        -1.89619212685832    4.62252917116340    7.07149588674605
C        -0.64015525448167    4.04481003874438    7.02318595636619
C         1.48736890699265    1.77666004773862    4.53365935924474
C         1.23549601092176    0.53578946054995    3.95899014867865
C         1.42359120639043    0.35920102117394    2.59953128118429
C         1.86419638423141    1.41158644585676    1.81380456743560
C         2.12842054773778    2.64542657142589    2.38736879497828
C         1.94305627189435    2.83053413438228    3.74451508745801
H         1.32606496276920    4.37040920202179   11.08220813077511
H         2.60937154504345    3.48502719565763   11.93005729346608
H         1.81994401714434   -0.11209247637663    6.92074767683453
H         0.04648208634666    0.04382421561540    6.83818939424951
H        -0.08596985420397   -0.93390999981165    9.15533674754699
H        -0.08999032576573   -0.44391302713028   11.57044846609028
H         0.93335484841682    1.63954282329763   12.40145669544122
H         1.66634819807439    6.42059049178216    9.43652422652283
H         2.01619681264207    8.84593281754623    9.81866908041874
H         4.22111055039607    9.66028618778115   10.56722851118557
H         6.06966673769025    8.07254051751394   10.92338272385104
H         5.72328551827810    5.66177621394175   10.55357158535182
H         4.69624599796053    2.46337762013411    7.90722578520429
H         6.69725500050434    1.01993450307320    8.19874921543692
H         7.86430423714398    0.94104825617889   10.36903916427651
H         7.04656625825984    2.28263656501094   12.26506161957607
H         5.05761432951160    3.71457968672978   12.00211097755688
H        -1.33487353274723    1.41421862876836    5.00310706521908
H        -3.57430766053880    2.44471560948637    5.10377375016926
H        -3.93209631518203    4.49311496088886    6.42455841329578
H        -2.05517489104938    5.52776147624644    7.63916850948087
H         0.21019785688900    4.50844236916578    7.54728919468691
H         0.89870234596650   -0.29206492712137    4.56683447029206
H         1.22602906700942   -0.60433021627948    2.15168387287403
H         2.00789474156834    1.26615014807231    0.75307528990381
H         2.48305336001515    3.46180484008018    1.77603189538182
H         2.16688979017189    3.78098648074393    4.21299378296944

