69
CSD_code = LEGTOG | q = 0 | S = 0 | Stoichiometry = C34H31ClP2Pt | MND = 4
Pt        1.10410810698255    0.91787086269991    5.74342045637911
Cl        0.43427753168926   -1.02361713248816    4.59455430284337
P        -0.36526634327696    2.36405697687209    4.83646324456994
P         2.80128007504683    0.06546058010542    6.96772651620019
C         1.64938670735641    2.61530195444992    6.71725755268413
C         2.92050123279507    2.72782672670100    7.28652580636187
C         3.29498658569082    3.89457831129125    7.93927536045007
C         2.41287611760183    4.95737611912754    8.02728932649831
C         1.14886059436492    4.85631233713053    7.47151975251428
C         0.76296670962326    3.69142512590472    6.82531353584706
C        -0.62730175591510    3.50854327894494    6.27197266153349
C        -1.50309491183943    2.78506073170148    7.29706782466507
C         3.87478912281648    1.57381335909245    7.11727080295717
C         4.62491280168393    1.72795879437012    5.79115961399938
C         0.50159218156624    3.36843076143921    3.60060879883781
C         1.53740892768488    2.72089263245553    2.93136161469549
C         2.28785315038915    3.39454140653195    1.98648518635931
C         2.00834211558638    4.72291245992215    1.70703923557542
C         0.98492764568696    5.37452224902963    2.37596315345409
C         0.23137832566952    4.70336808622782    3.32297922127473
C        -2.01049661691283    2.01443199262229    4.15823610446269
C        -2.61777705765260    2.78717992300523    3.17516442640252
C        -3.88235899712629    2.45168490210705    2.72559828473451
C        -4.53905350249113    1.34818858176915    3.24653418237612
C        -3.92761205995850    0.56612023607360    4.21350539246658
C        -2.66401714645053    0.89484067087963    4.66638994668602
C         3.95901218325445   -1.25011851261418    6.49549671951041
C         4.97418935420066   -1.64338681550713    7.36348576578651
C         5.87149867684406   -2.61834793856997    6.97202965035250
C         5.75903874465933   -3.20380618700460    5.71942054385423
C         4.74725496209784   -2.81627121751860    4.85713009484037
C         3.84665538058958   -1.83775305644113    5.24162112660447
C         2.35580841980233   -0.38867925346293    8.66653604360954
C         2.03282232720676   -1.71968455474580    8.92455355865435
C         1.62735923969874   -2.10424555029314   10.18828421448317
C         1.53220575206084   -1.16361868188150   11.20185148892415
C         1.83278755208292    0.16389816654286   10.94472093304356
C         2.23724381740862    0.55615586994657    9.68100350701194
H         4.28080664202085    3.97229105362935    8.37808047978644
H         2.70993465723587    5.86493182903627    8.53200260851412
H         0.45824329412163    5.68526461059068    7.54635192993313
H        -1.08836545113050    4.45953590559847    5.98445755907951
H        -1.06370945936847    1.80630151481517    7.51611568127311
H        -1.55150294137299    3.35354019189000    8.22447468432238
H        -2.51392853088431    2.64139205254825    6.91711042673802
H         4.58413012409624    1.49972959287344    7.94988679955291
H         5.14106851396922    2.68590601455798    5.75490577544273
H         5.35180063395592    0.92843856822843    5.65516375903194
H         3.90444059592132    1.69345631832685    4.96865293436882
H         1.73738527620369    1.67743723675097    3.16799004830443
H         3.09073049952551    2.88981243814368    1.46965014632901
H         2.59210497485100    5.25429541828893    0.96983322438655
H         0.77487005690931    6.41218242162321    2.15996450346794
H        -0.55748762223980    5.22290756879908    3.84861243715098
H        -2.10002428730205    3.63820206582482    2.75612116338541
H        -4.35609163370354    3.05055388259268    1.96112716064147
H        -5.52508746052969    1.09096825489553    2.88830078498628
H        -4.43273964707385   -0.30406436638703    4.60582612032654
H        -2.15889441499351    0.27646147943679    5.39761870342147
H         5.05053473735453   -1.18797415640829    8.34214033374233
H         6.66015574433862   -2.92616519212964    7.64349016206963
H         6.46183100267928   -3.96753167011988    5.41965734480730
H         4.65736528983942   -3.27856643678867    3.88530527129114
H         3.03926895543316   -1.53672932024892    4.58731351060550
H         2.10058719699262   -2.44545524039945    8.12496569511400
H         1.38148001017681   -3.13771641798023   10.38395087503526
H         1.21645789751799   -1.46436016611056   12.19003936443762
H         1.74851972092826    0.89923593202872   11.73183848120580
H         2.45466967101375    1.59529441751524    9.47963607939449

