55
CSD_code = LEGVIC | q = 0 | S = 0 | Stoichiometry = C13H29B9MoO3 | MND = 10
Mo        1.22021880278108    1.78424383846807    2.66356436978905
C         2.23327718499509    3.78187569837114    3.42591123192721
C         0.70006288076929    4.02868326013002    3.29744627865606
B        -0.18305146421697    2.87608905733332    4.12620769316557
B         1.02442678137335    1.86106546966994    4.91328382595389
B         2.58256104358405    2.45376366459697    4.38411989032480
B         1.56440269104866    5.09912767356218    4.36766439786546
B        -0.00162096788816    4.50415298554496    4.83273187175878
B         0.23501063294999    3.12474856692572    5.89227016157709
B         1.98672105391212    2.87664420858631    6.04212818859294
B         2.78694946356746    4.08534242203444    5.05995198573885
B         1.33119703687003    4.51909884144473    6.00340087324590
C         3.17412155540567    4.27094873538132    2.32968788895009
C         0.13018761727551    4.76090791787026    2.08788826404319
O         0.73634936030773    0.30289977604046    5.35603612813137
C         1.64751188265552   -0.31677835423956    6.27628097060218
C         1.29040209423825   -0.15424317039281    7.74780214126310
C        -0.64389998388788   -0.04429907457107    5.54661919095701
C        -0.89763787776211   -1.53208646633641    5.35725792308674
C         0.11001940460769    0.27179309376609    2.32304269124206
O        -0.54173644061822   -0.66353860670535    2.10023395530679
C         0.43895616394728    2.06067569901597    0.88523591944921
O        -0.37394482337681    2.33976963226548    0.06365030763394
C         2.45322156903928   -0.05780242072200    2.10167325753584
C         2.87590831226863    1.15693864770034    1.48549418103193
C         1.96902829538106    1.58312618461877    0.39494964983212
H        -1.31245428920174    2.65236621850478    3.83212374571854
H         3.62034162701982    1.87876834674897    4.26679012666911
H         1.76552055436282    6.18335919718514    3.95986822981038
H        -0.92918819422414    5.22532503489424    4.80219933390216
H        -0.53932181401887    2.84712359743630    6.73943041442796
H         2.51382852019931    2.42677277705350    6.99643259373132
H         3.87993334220132    4.49881160043023    5.19862288704149
H         1.36741465192487    5.25129013332646    6.92144760184738
H         4.16768833559857    3.84782888579164    2.48135975677277
H         3.28387017396512    5.35671334151506    2.34475658171416
H         2.84407676028901    3.99844546372042    1.32566058212843
H        -0.82697349687428    4.32714410603787    1.79927112899816
H         0.78430118211432    4.71394713676557    1.21664953715063
H        -0.04183761406952    5.81652625313354    2.30378921257249
H         1.71064689650658   -1.37800029026346    6.01427212523308
H         2.61260852559173    0.14884501953129    6.07449952047301
H         2.13952366592241   -0.46913645633052    8.34785717072709
H         0.43588932460924   -0.76446748744354    8.02814909134348
H         1.07735342362041    0.88658069543118    7.97273238580862
H        -0.98714559818350    0.29759253618371    6.52761743973759
H        -1.18089360086237    0.50766949941328    4.77488971220665
H        -1.97021605405641   -1.70204868155137    5.34387566880936
H        -0.46897094104080   -2.13367783272196    6.15471428018090
H        -0.49251668445941   -1.85668647379045    4.40253876332298
H         2.04267803467399   -0.84075295064269    1.46525479685341
H         3.11312967477885   -0.46337627115106    2.86739353848843
H         3.90762457682433    1.50320240166249    1.51102204874277
H         2.35713478657601    2.41311905852653   -0.20475578421189
H         1.69841196097427    0.74986786023431   -0.26819572785705

