48
CSD_code = LEGVIF | q = 0 | S = 0 | Stoichiometry = C21H18MnNO7 | MND = 6
Mn        0.77787027374757    3.61178260956978    1.50496380185302
N         0.09433900972248    5.10294324241758    2.78469575521152
C         1.28106751146406    2.27980140045402    0.42870726312235
O         1.59751094113565    1.41685581980675   -0.26112514991699
C         2.32343360593120    4.49402215416377    1.26615474743801
O         3.31350971711638    5.05664701368968    1.13077215658654
C        -0.22345913841720    4.32606034346452    0.20594462568645
O        -0.93044203706261    4.74256304467659   -0.59517885679029
C         1.03940210731464    2.61343857030486    2.96807524382062
O         1.17455881871836    1.96029709891416    3.90817036640600
C        -0.87496771617081    2.71836469850913    2.30809122209870
C        -1.41315824832903    1.45407633103842    2.05181020653202
H        -0.87440748221618    0.75727051103534    1.42159779998604
C        -2.62827168409825    1.06496579517073    2.59004270836122
H        -3.02431727231384    0.08641022780936    2.36115295948876
C        -3.33503066225124    1.91722567732304    3.42650047060043
H        -4.27641785158324    1.60261908534564    3.85147044668585
C        -2.82804529441435    3.16657090760862    3.71920232311369
H        -3.37443913831178    3.82540607739153    4.37755475355514
C        -1.61238875852043    3.57289707071362    3.16669786001248
C        -1.00555206501924    4.86978686277871    3.41939633318847
C        -1.65589896991848    5.85133341978929    4.34165095612876
H        -1.12764334419094    6.80174672000267    4.34017813464169
H        -1.67225723732620    5.45512791396575    5.35651158708607
H        -2.68561805075013    6.01778358942316    4.02887869868163
C         0.81716129385928    6.30180516133650    2.99061369763813
C         1.48080139758417    6.51043241459385    4.19008902779929
H         1.41532879298960    5.75413715740103    4.95611519554836
O         2.89486127433407    7.91855340455541    5.56217395819469
C         2.23819139800062    7.66151967819606    4.38927049280520
O         3.00270943338612    9.79775592934459    3.41787955357189
C         2.32652927879809    8.61688449065724    3.36657161315982
O         1.77420448733294    9.37566760801469    1.23056530623092
C         1.63513748478247    8.39521393817891    2.15578543729679
C         0.88737880033721    7.24369963349483    1.97162686574599
H         0.36659654465524    7.05256053573305    1.04640748327513
C         2.95424732993995    6.90908359622217    6.54029707947254
H         1.96700008825917    6.69722007767384    6.96394219056425
H         3.60025629712313    7.30285979027877    7.32362977724651
H         3.38848910167168    5.98641783679569    6.14338187242268
C         4.14563651792723    9.92549535229745    4.23530129201359
H         4.82409668930759    9.07782122917950    4.11196837427965
H         3.88243596031437   10.02609146517386    5.29048340464733
H         4.63828349583521   10.83571412900494    3.89387668376389
C         1.17713840883978    9.19624212264421   -0.03103969318509
H         1.45334839021953   10.07474332218463   -0.61157906666678
H         0.08589662589446    9.14161702408962    0.04249116594440
H         1.55319387435923    8.29796791759057   -0.53116812534939

