83
CSD_code = LEGXUQ | q = 1 | S = 0 | Stoichiometry = C38H40O2P2Rh(1+) | MND = 8
Rh        6.99967221794610    3.30077624725575   11.22028234872388
P         8.18617121363530    3.05603126870674    9.33113636685827
P         8.61541264080926    2.70435658446735   12.65435700550794
O         5.01015897816685    4.09972254738069    8.77056646316258
O         5.78329441846582    3.70811102922534   14.20791260478524
C         7.24351106538801    3.66395566000329    7.85400466470371
C         5.77073156587732    3.24747824569303    7.92861306677008
C         5.17709647930468    3.97828651767075   10.12694948063635
C         5.46150963266836    5.18919880579604   10.85146097340765
C         5.61119790663949    5.12512678258092   12.23798779558910
C         5.58216570576156    3.83050275886947   12.85605490503825
C         4.95120273367452    2.72674326548697   12.19229011098382
C         4.68835387116644    2.82556938185504   10.81676640655022
C         5.50303815699068    6.49757311875582   10.12398954405349
C         5.75573505383779    6.36552640261534   13.06565594981074
C         4.49223028435040    1.54062440562772   12.98593050524345
C         3.87426629669441    1.78632063935823   10.10535828989211
C         7.10593144866782    3.87990809489663   14.69250021989333
C         7.99326368604143    2.66459445721934   14.40040339130309
C         9.79585845676606    3.87461776242960    9.12977391398084
C         9.82950033190366    5.26002491242343    8.98879821095866
C        11.03797149845327    5.92757350437353    8.93327009441896
C        12.22512187988503    5.22170306054558    9.04221042006539
C        12.19829066530884    3.84631786747435    9.20155512197354
C        10.99068727231339    3.17292603764239    9.24721364096432
C         8.45847048349291    1.32178659744239    8.86309376313698
C         9.22957428536705    0.95896166664768    7.76262131163064
C         9.38501018839248   -0.37721855988103    7.44377827330346
C         8.76692577448344   -1.35408081984151    8.20953875138259
C         7.98278926642048   -0.99630864926001    9.29369309438664
C         7.82940490256643    0.33886094461463    9.61822647742638
C         9.44233567662872    1.09682594507064   12.48267073492306
C        10.71416878716958    0.98633741493709   11.93145909719228
C        11.26415690706742   -0.26210538911428   11.70127520827818
C        10.55104672209233   -1.40747417466368   12.01320096492303
C         9.27945453434631   -1.30394713866619   12.55378678600455
C         8.72257530668608   -0.05918486456533   12.77654654906731
C         9.93797367071024    3.93941817395016   12.82016705882616
C         9.74120050382353    5.17583531778981   12.21608291074009
C        10.68954243307016    6.17388292487504   12.34110336787275
C        11.84253366997942    5.93774191319453   13.07126160924448
C        12.03747477979289    4.71162247155178   13.68832192121158
C        11.08673974483585    3.71437369775257   13.57256071213589
H         7.30941747280679    4.75139839886680    7.78431786023525
H         7.69724675507631    3.22879140115412    6.96023646182821
H         5.70199687645844    2.19846342466911    8.24430433437287
H         5.30149032415686    3.35339386787191    6.94723083020227
H         6.37970384261434    7.07985983757443   10.40195313886737
H         5.49600545256242    6.33243857512721    9.05048160076231
H         4.61786194088009    7.08003470830748   10.38095059671445
H         5.58466763607705    6.14010503529403   14.11528693234515
H         6.74121012150432    6.81920892637140   12.95660574350923
H         5.01710710362733    7.09825175257815   12.74466905509851
H         3.40408432090690    1.55528888827742   13.05438556182616
H         4.78709572860122    0.60499183679719   12.51385862191274
H         4.89098015580538    1.58555273061257   13.99543231923550
H         3.00274230085991    1.54349086552508   10.71142095249543
H         3.52958115764433    2.16869093859759    9.14760438662506
H         4.43031217328178    0.86305423107347    9.94027315754265
H         7.57123566659227    4.78461566276515   14.27912477255311
H         6.98471385063070    4.00528125149976   15.77137703697806
H         7.42499515600467    1.75015186647564   14.58071847322659
H         8.85752885732091    2.67632663588936   15.06885441231364
H         8.90438569456058    5.81748248832051    8.92899745175778
H        11.05647759347186    6.99983707023383    8.80796861696633
H        13.16886539026407    5.74324621682784    9.00349502657689
H        13.12245196918583    3.29489616603491    9.28848889484219
H        10.97011040927400    2.09933318724760    9.36519070644749
H         9.71238872749058    1.72097678958829    7.16610282998142
H         9.98964113556083   -0.65932759832951    6.59518741652275
H         8.89413303497798   -2.39523455686476    7.95629459749251
H         7.49486709509452   -1.75782882123525    9.88308338616351
H         7.22383524928194    0.64299672084112   10.46958995975234
H        11.27159092519971    1.88003881185036   11.69207233909125
H        12.25401218321493   -0.34142443638321   11.27745189641233
H        10.98409804750650   -2.37939610917107   11.83395190962838
H         8.72164601884238   -2.19556352918199   12.79781271564064
H         7.72011772771697    0.01825476755793   13.17547547072223
H         8.83171612980099    5.33564860756081   11.63995348982147
H        10.53441835935097    7.13298087266840   11.87069405546557
H        12.58901023349137    6.71119209428306   13.16543618014571
H        12.93280182244742    4.53432021219870   14.26457585305625
H        11.23600426219570    2.76048338045276   14.05946086793842

