104
CSD_code = LEGZOM | q = 1 | S = 0 | Stoichiometry = C54H47P2Pd(1+) | MND = 5
Pd        8.68570579159752    0.72677697938743   50.74061810899421
P         8.16608331682869   -1.48456827363117   50.48230954268704
P         6.58677506398862    1.23942971277369   51.52808069631864
C        10.78727808607122    0.49431547487891   50.48540634597204
C        10.43243540643668    1.77621252791485   50.05037373192269
C         9.69532765963833    2.60558115602760   50.92641591315708
C         9.21458649070160    3.94176318026622   50.39586353672244
C         9.46705739233246    4.02910416489308   48.89151550299590
C        10.93867338833988    3.67783905435942   48.54791855484884
C        10.47291076387726    2.19561694287532   48.61055041991036
C         9.05806015302949    2.69327537216308   48.24979060990113
C        11.31970681747920    4.10455111456306   47.13429634761356
C        12.04466910783684    4.12202922552990   49.49548102006017
C         6.45341855479606   -1.83684048288169   49.98829312666135
C         5.42628315619606   -1.60110018614536   50.88502837047108
C         4.07532924911077   -1.73216397571954   50.46339411710688
C         3.79840130409295   -2.07357662390464   49.11379526564456
C         4.87254257455446   -2.31291772569124   48.23241007769643
C         6.16348680889130   -2.19577641081557   48.65532755097918
C         2.99000401131570   -1.50776100373423   51.33852787739351
C         1.70131802972854   -1.61847335682452   50.89742280452338
C         1.43015168545987   -1.95115392116621   49.56175371337730
C         2.45784587952777   -2.17338544028108   48.68931764912035
C         9.18206691324792   -2.23520866640624   49.17896245855275
C         9.80342433272336   -3.47397834923736   49.24946908420864
C        10.58233176872745   -3.90652958752843   48.18792717394124
C        10.74080473254989   -3.11294196314361   47.06428567840848
C        10.13126111036427   -1.86783648598805   46.99666412545398
C         9.36258513896713   -1.42642404165281   48.05482865020402
C         8.43342521246156   -2.38856351625852   52.02705631141477
C         8.11108759236595   -3.73200100890277   52.18846825822389
C         8.32340436584285   -4.34204573791635   53.41125949179946
C         8.83654197652234   -3.61505051779046   54.47327066031625
C         9.14676450855825   -2.27261478049569   54.31904399752785
C         8.95001177986532   -1.66005540741182   53.09652869179325
C         6.08142919601301   -0.03555922618672   52.74132236631647
C         5.69145857804283   -1.29342570545104   52.30982526584234
C         5.46146686639382   -2.33098202473776   53.25588439828709
C         5.65179653814764   -2.07276118746781   54.63765690860963
C         6.00371259302810   -0.77032336823591   55.04260554432516
C         6.20999262501444    0.21597013764554   54.12380007950554
C         5.07774816601260   -3.63253667316403   52.86334739676074
C         4.90016151998675   -4.62016249351074   53.79108443561159
C         5.09885933809469   -4.36320146996689   55.15585760068543
C         5.46593168279787   -3.11406129878193   55.56941225629908
C         6.51605891006877    2.81460736269194   52.43513391853033
C         5.61086874931403    3.83378405949664   52.16578739839627
C         5.68865214794814    5.02627149650911   52.86700322352593
C         6.66646854486569    5.21242470548582   53.82907513926843
C         7.58827943787656    4.20800128137060   54.08509934780884
C         7.52046216678692    3.02093887872097   53.38351454887282
C         5.19885406351533    1.26900670831459   50.36335617588884
C         3.89313959346712    1.44339731031922   50.81447979982252
C         2.85018096162683    1.45028682670901   49.90759320059718
C         3.10096438940844    1.27055401490439   48.55636865740976
C         4.39792558406343    1.08398761308979   48.10604935218601
C         5.44536188854258    1.08652602806977   49.00765190185377
H        11.07531150747548    0.35165741345773   51.53284656107703
H        11.28405852806563   -0.17641812502180   49.79153093094293
H         9.96138844259781    2.59210603378292   51.98978483813089
H         8.14572110285460    4.07686204876107   50.59861814512815
H         9.73692109293621    4.75112983863816   50.91477576031912
H         9.05937811842943    4.94724130354881   48.46979857700435
H        10.96339022469886    1.46620676701704   47.96377056993749
H         8.21666880245163    2.16402782815761   48.73237891413534
H         8.87990234510747    2.75917015176401   47.18054667260456
H        12.24993337680792    3.62474316726381   46.83703082943605
H        11.46910517122633    5.18146525747663   47.10427895277200
H        10.55744158582152    3.84964286423753   46.40453494950459
H        12.09196600967974    5.20871045986754   49.51922816666772
H        11.90342013768454    3.76191278287736   50.51003557259640
H        13.00315727860433    3.74953496080269   49.13936899896765
H         4.65606035639824   -2.59333064885110   47.21220877868540
H         6.97763942409277   -2.38692587705032   47.97143269981193
H         3.18902045845339   -1.24840186217022   52.36730669016010
H         0.88111311253198   -1.44857950206661   51.57828887089127
H         0.40584098209833   -2.03224302384790   49.23168671006336
H         2.26120716734437   -2.43291037412066   47.65961177980383
H         9.69483972309036   -4.09003657288678   50.12972663690270
H        11.07021127454763   -4.86786238732463   48.24149511339306
H        11.34911615330783   -3.45831525662193   46.24264108587937
H        10.26567035713707   -1.24575973985688   46.12423595035029
H         8.89322177410841   -0.44103346247066   48.03434931373120
H         7.68150073530314   -4.28617023747962   51.36543164607541
H         8.07841224935347   -5.38519729849417   53.54040019507895
H         8.99111487484853   -4.09557139353717   55.42695473849481
H         9.53888371274058   -1.71006473111576   55.15292286920675
H         9.17550313256659   -0.59512491806979   52.96033415487285
H         4.92460087224226   -3.84387167347625   51.81596762008400
H         4.60516988438327   -5.60951783789675   53.47568090054011
H         4.95558842550706   -5.15679960501163   55.87306314967229
H         5.61689778177853   -2.90121809744904   56.61735199534655
H         6.10521015335816   -0.56136902382616   56.09729808330319
H         6.45594834424660    1.21120858068373   54.46076410415719
H         4.85329440414792    3.70366687938430   51.40678678532121
H         4.98241491579440    5.81468068840713   52.65564800280505
H         6.71982678254476    6.14330492135374   54.37200844214792
H         8.36055033164892    4.35733443769093   54.82485798468515
H         8.25313891186985    2.23630599513837   53.55714930460741
H         3.70241125769749    1.56181482120574   51.87245081262904
H         1.83775863257734    1.58875469058479   50.25500371010813
H         2.28206073647751    1.27098623050704   47.85381598604893
H         4.59006538526938    0.93522213357713   47.05441593097503
H         6.46621030305182    0.91686097452924   48.67231713261897

