47
CSD_code = LEHBIL | q = 1 | S = 0 | Stoichiometry = C20H16ClN6NiOS2(1+) | MND = 6
Ni        2.43559086966719    5.57711835985874    4.07971163187992
Cl        2.93691779594448    3.92314921782254    5.21172426434665
S         2.65568592458617    7.47868141700192    8.60413914591111
S         2.01911955689088    2.95913910284294   -0.03225383055388
O         0.39433297646286    5.13448345288222    4.53400754200966
N         2.13183265001484    4.31227737469175    2.12366168903551
N         4.28399600845065    6.15790949011164    4.17500848348849
N         2.47382596366064    6.78725135195921    6.15410650421734
N         1.98119528237596    6.96099745152572    2.79389520510782
N         6.03765630829909    6.94887912809495    5.27199973496954
H         6.59087193817212    7.34415012983539    6.01433661460075
N         1.44924557820427    7.64857127838557    0.75077045360682
H         1.23531079918474    7.61906732238104   -0.23227279790924
C         5.37696307619688    6.03097676337514    3.36109011386406
C         1.86497051987478    5.21440483362466    1.12917051746221
C         6.50407603962898    6.53390290632286    4.04881402320793
C         1.75906197528231    6.59171199431662    1.54210476897815
C         4.70729190585190    6.70027003287323    5.30645042841285
C         3.80829373706037    6.96693584577334    6.40097156210574
C         1.81015518634903    8.31840432668489    2.83651700859182
C         2.23775025712093    3.11143795025641    1.67416010870200
H         2.44978721484700    2.26234065125335    2.29528743011567
C         1.46995215744584    8.77096353540492    1.54132722769802
C         4.09233507110910    7.35121312281923    7.68637014554201
H         5.04568388833241    7.54335894953437    8.13499158917411
C         7.87785043430452    6.02808825426605    2.20040936795380
H         8.84300191432028    6.01102877801769    1.71948500163800
C         1.91480566826809    9.22411382333497    3.88897190398488
H         2.16337577154497    8.87829670383034    4.87824204810869
C         7.76724927309272    6.54021242164103    3.47656157704798
H         8.62312979184240    6.92473640614673    4.00771565247268
C         1.76570241235357    4.65131922751258   -0.11695093147746
H         1.56961424248465    5.12703539220199   -1.05621465647965
C         6.76912971277535    5.52391876594304    1.51343352898226
H         6.91000477451185    5.12866665600546    0.51946970694381
C         5.51127579488953    5.51638404158916    2.07509118100210
H         4.65566460061525    5.11961799141774    1.55343108240887
C         1.76082195636470    7.01605681424003    7.19859703689454
H         0.69125228922181    6.94009267066996    7.21878648398884
C         1.23097459830105   10.10994205098281    1.27007466712733
H         0.96948371447314   10.44534145929507    0.27919661840501
C         1.67642189378054   10.55201884416241    3.61294399695077
H         1.74555518151087   11.28028070242763    4.40598037013180
C         1.34108094892937   10.98908650459862    2.32695253479040
H         1.16208258200768   12.03963780701103    2.16107113205502
H        -0.04059496279768    4.60473658258396    3.85818586936452
H         0.55391472619071    4.54139211248525    5.28547626313554

