59
CSD_code = LEHCUY | q = 0 | S = 0 | Stoichiometry = C20H30N4O4Zn | MND = 4
Zn        8.96605601508283    1.58803711305292    6.43419474794451
O         8.33057105737385    2.94527005464599    7.78710858243267
O        10.05630189712035    1.68093649672386    8.17242386313912
N        10.33462569003121    0.02332479179854    5.65018610463315
N        12.47814776253580    1.81100826411981    5.93061453950676
C        11.03801490255004    0.50197026992992    4.49716788318855
C        12.06652429225627    1.43688438951453    4.66164856839147
C        12.70527135721430    1.90604978846070    3.51830527550864
H        13.50436682490756    2.62504988976788    3.63469952394677
C        12.33832542732483    1.49961202279318    2.24509774285907
C        11.29156606138072    0.58882179066480    2.09252353201658
C        10.66187454176779    0.10121761467581    3.23016353781310
H         9.84248891997294   -0.59773480485510    3.12542464854989
C        10.84924543647472    0.13949275069807    0.73215373418326
H        10.00226046863142   -0.53746927986169    0.80799386485034
H        11.65827945461916   -0.37509316688377    0.21353922505133
H        10.55539210791588    0.99158033946175    0.11967529529449
C        13.05088256175726    2.04924979797461    1.04570133320193
H        13.84710587751228    2.72480246469300    1.34711843682476
H        12.35959853908661    2.59522254616901    0.40364817952102
H        13.48436785268164    1.24342392522025    0.45406808581466
C         9.25739889868387    2.57661386615079    8.53739402436628
C         9.39715085105894    3.19714454678667    9.90524672713907
H        10.32281011514105    2.87515545751185   10.37098941990309
H         8.54807717568466    2.87834122643139   10.50568593451237
H         9.36813187488623    4.27917233823805    9.81640943364836
H         9.83718168851586   -0.82903438122118    5.41124542367005
H        10.99281329859808   -0.16569041433138    6.40215669955801
H        11.73578371472574    1.87326848852782    6.61621558296534
H        13.04946623856112    2.64348743125464    5.93305482661329
O         9.60392592388519    2.94967330830049    5.08640291781961
O         7.87803262198631    1.68757676639080    4.69475946269270
N         7.59495531837684    0.02456850544466    7.21420813176306
N         5.44843296453600    1.80614609014502    6.91988764086761
C         6.88471187851795    0.50354398845391    8.36283302118903
C         5.85406390355269    1.43481381356818    8.19158950450645
C         5.20723112119356    1.90305179066752    9.33077315823597
H         4.40614899494519    2.61886841294427    9.20914798261530
C         5.56874552224356    1.49967968402756   10.60654514668579
C         6.61831281819057    0.59334155309316   10.76599889698408
C         7.25579940011223    0.10625134242467    9.63245523604661
H         8.07694595667196   -0.58971209725054    9.74252181073507
C         7.05446297768315    0.14675796210262   12.12931344928414
H         7.90424611003735   -0.52736405217314   12.05882834885694
H         6.24439568509351   -0.37065089037058   12.64364710850373
H         7.34170418492615    1.00023235809015   12.74308046527822
C         4.84698659444833    2.04741387960307   11.80119210673218
H         4.04814076328799    2.71742493499802   11.49453228743067
H         5.53178469607729    2.59905342036611   12.44525785513146
H         4.41549243099351    1.24043363868138   12.39268814049743
C         8.67815673291583    2.58369477680989    4.33356484874508
C         8.54119772425560    3.20848464675844    2.96731629570878
H         7.61778646711353    2.88567048967569    2.49761681058612
H         9.39311568643742    2.89387960829520    2.36861764187339
H         8.56709492391751    4.29035698016854    3.05997350534149
H         8.09302301022486   -0.82629805182609    7.45712606116713
H         6.94065849087639   -0.16713155961552    6.45952945602233
H         6.19466804172951    1.87117900750830    6.23867391918106
H         4.87309815180721    2.63584407418612    6.91316401219401

