31
CSD_code = LEHDAF | q = 0 | S = 0 | Stoichiometry = C13H12I2N2OZn | MND = 4
Zn        3.79998514733241    2.38192497105461    3.37585239100682
I         1.87876249377850    3.08907860241618    1.90186199539888
I         5.80264871612090    3.42099627878980    4.46973774899752
O         0.69667855366108    2.63961538456869    9.57622540024004
N         4.36802532031379    0.48906837319346    2.53443684537860
N         2.98710899982308    0.99932393435863    4.82618838249091
C         5.02586776547692    0.23910491421338    1.41613767853344
H         5.44924776373987    1.09631838597772    0.90926114215288
C         5.17816899694084   -1.03978723785266    0.90271488548866
H         5.72568586535184   -1.19392314486555   -0.01261480377642
C         4.61020632818941   -2.10195022105363    1.59116168524821
H         4.70344609846018   -3.11156576819021    1.22094664166570
C         3.92200052070355   -1.84477849996286    2.76219726707382
H         3.46454365344446   -2.64191547962496    3.32762117697229
C         3.81876606443856   -0.52685617430017    3.21254856563391
C         3.12020618463337   -0.21388475077844    4.43927412359625
H         2.71717994023382   -1.05979825831787    4.99469570091217
C         2.39629694945090    1.36698738993258    6.01633904220023
C         2.21456410921372    0.50343469544945    7.10878087900611
H         2.55367878027728   -0.52004166269705    7.06020797622100
C         1.65333295943197    0.96472356989319    8.27133166958332
H         1.52533740771322    0.31367601510267    9.12152435800244
C         1.24031452731794    2.29972789921100    8.39387890301813
C         1.42635042793555    3.16529447120672    7.31447069171035
H         1.13005051826540    4.19992610300372    7.37324881162171
C         2.00437893442411    2.70165888224041    6.15443387309562
H         2.13949235373661    3.38421505062820    5.32619020887349
C         0.28845538574019    3.97406588132198    9.78752180994820
H        -0.10250464427615    4.00289079272438   10.80289326824441
H        -0.49932440056576    4.26609450755381    9.08705561321482
H         1.13074827869070    4.66647509480356    9.70297606825106

