101
CSD_code = LEHHIP | q = 0 | S = 0 | Stoichiometry = C50H44Cl2P4Ru | MND = 6
Ru       14.39693897458635    1.48972665242766   36.07998696038270
Cl       15.73680970836232    3.18413881505454   37.09961494554351
P        12.94298226142157    1.39846776071639   37.85294745895047
P        12.71392697468993    0.03653580908867   35.46587171921183
C        11.83430447522360    0.09731855888542   37.11218767326005
C        11.38665979023858    0.43837190782278   34.28847645967000
C        11.30435378027004   -0.23270571849246   33.07191207781307
C        10.33486121110613    0.12146155481578   32.15201344905253
C         9.45590692451302    1.15530456583109   32.43015277116390
C         9.54686435759094    1.83660011420057   33.63293722348967
C        10.50829940066199    1.48427387759819   34.56144157733077
C        12.91671121426315   -1.74383530607312   35.14002665158068
C        11.98493727945940   -2.69085362727745   35.54639959914606
C        12.21010064225290   -4.03046213289361   35.28824690273085
C        13.35409776828146   -4.43008335800235   34.61637621914097
C        14.27052353410224   -3.48612339049894   34.18325312273792
C        14.04950674716682   -2.14813810481708   34.44650911253160
C        13.41089035849875    0.80302722103270   39.50463303249727
C        12.60764646951855   -0.01173537671169   40.29368466041838
C        13.05087785632270   -0.40182068870330   41.54404529242547
C        14.28358155992669    0.02569988790073   42.01223645046008
C        15.07883387901223    0.84844861317807   41.23124768127497
C        14.64591534958614    1.23559718211540   39.97669781204889
C        11.84959544722490    2.78070262174150   38.29040014932217
C        10.56095841101171    2.59311754205709   38.77959050920400
C         9.78769966674960    3.69202488871491   39.10346884696290
C        10.29646667908670    4.97221193133108   38.94729085365851
C        11.58535750768313    5.15769022859303   38.47584440234302
C        12.36692044413785    4.06418912885203   38.15022284418811
H        10.78277492326695    0.38538934595385   37.03047604974243
H        11.92462217680095   -0.85915811057419   37.63429833564123
H        12.00033899005718   -1.03002439231506   32.84808619797555
H        10.26979368892437   -0.40814040376183   31.21217700923579
H         8.70471615641247    1.43509695482049   31.70592622369708
H         8.87231234777159    2.65291570230364   33.84541867098157
H        10.59372370384211    2.04131110603554   35.48478343573472
H        11.08254576621258   -2.37982624293659   36.05456936647396
H        11.48918513409744   -4.76819299496559   35.61001206093382
H        13.52664743832751   -5.47856509869028   34.42355677858332
H        15.15465374465306   -3.79552906500730   33.64489498495753
H        14.74443362720654   -1.38752833002925   34.11137364549761
H        11.64198567260190   -0.34172454878586   39.93472008803163
H        12.43173346496898   -1.04005916529275   42.15844684291975
H        14.62131674191310   -0.28342041913103   42.99079474305597
H        16.03788501760085    1.18530445996333   41.59609353862167
H        15.25642103067269    1.87398549938131   39.34848170678653
H        10.16242120006362    1.59508466586807   38.90771638146084
H         8.78346970754180    3.55067806706572   39.47763723800868
H         9.68297334230206    5.82626011559551   39.19561081789315
H        11.98048925425426    6.15537406381941   38.35537459573974
H        13.37262565964719    4.19387494867961   37.77048565104904
Cl       13.05650846112973    3.18439798947669   35.05977699208236
P        15.85078369683503    1.39850358549696   34.30690987532454
C        16.95950351124693    0.09745809432477   35.04778175428292
P        16.07982824992099    0.03656118722512   36.69407298752264
C        17.40710340171088    0.43818274425411   37.87153107818599
C        17.48924571780848   -0.23296752828495   39.08806368966900
C        18.45868519788248    0.12106752904674   40.00807121635927
C        19.33769445889478    1.15491155470103   39.73010923544989
C        19.24693840627463    1.83624464743834   38.52732636750935
C        18.28563175473943    1.48397535136478   37.59866717054300
H        18.20024181976038    2.04118433061233   36.67542944274171
H        19.92159329658185    2.65249978809784   38.31493245349526
H        20.08898420240299    1.43446299675721   40.45432233486166
H        18.52367550802346   -0.40865779808267   40.94784197629787
H        16.79314001980412   -1.03020409268504   39.31180993400699
C        15.87703489233288   -1.74385003251071   37.01976179862101
C        16.80875230301859   -2.69088100356049   36.61325926262784
C        16.58355415686842   -4.03050289751530   36.87131401798684
C        15.43957582064022   -4.43013545183805   37.54322146551306
C        14.52320528263741   -3.48616817077577   37.97647274498517
C        14.74425784392406   -2.14817283980982   37.71330645785680
H        14.04933937516073   -1.38757980549455   38.04847493851138
H        13.63905493934448   -3.79559152512652   38.51477791938251
H        15.26701089280076   -5.47862373467591   37.73599512131660
H        17.30449636977386   -4.76821166995678   36.54960016333685
H        17.71117316066164   -2.37984400341027   36.10516090252848
H        18.01099943703684    0.38563615883033   35.12955225857703
H        16.86932237869047   -0.85901889763404   34.52564120588065
C        15.38299779035474    0.80286145343346   32.65525389738043
C        16.18637563915044   -0.01185277115670   31.86627985964587
C        15.74326505001629   -0.40204345857340   30.61590980421793
C        14.51053577240208    0.02531062016447   30.14762152957659
C        13.71512832095476    0.84797082636785   30.92854873609175
C        14.14792603921563    1.23522301841255   32.18310586301488
H        13.53729881023299    1.87360510190220   32.81121472621469
H        12.75601868156395    1.18463213394367   30.56368501222127
H        14.17283461501887   -0.28400793572798   29.16911588454946
H        16.36252988710929   -1.04024995448731   30.00159392816387
H        17.15209707919131   -0.34165214567781   32.22524959042054
C        16.94405031688719    2.78080963891018   33.86938860718870
C        18.23272359990285    2.59327156648932   33.38028953962566
C        19.00590568655908    3.69220384201295   33.05631591456041
C        18.49700792514931    4.97235869401983   33.21224744334184
C        17.20808783790723    5.15778637486088   33.68363007407899
C        16.42661886315091    4.06426521109490   34.00939535551458
H        15.42090307768047    4.19392561317898   34.38910808599682
H        16.81290264881419    6.15546145158002   33.80406652725930
H        19.11047779318206    5.82643541833835   32.96396104446087
H        20.01015370202583    3.55089612910847   32.68217669725708
H        18.63132884554074    1.59525534906776   33.25220629219756

