69
CSD_code = LEHJIR | q = 0 | S = 0 | Stoichiometry = C21H41NOP4Ru | MND = 6
Ru        0.27125507833642    4.27424523125468    2.57639319419857
P        -0.88440313491174    4.45391345635426    0.61293235779000
P         1.26093300266601    2.49945889787773    1.57581295899243
P         1.71604919623812    4.36091465639943    4.34460402256801
P        -0.68750689597864    6.08515114366555    3.55328076809396
O        -5.10121856027798   -0.75107874090429    3.07492115663587
N        -1.10679811924715    3.01086332222231    3.67495460798597
C        -1.13093993982154    3.03850255985414    5.03123142330285
C        -2.06332004299996    2.19328660205052    5.57919133588942
C        -2.69462912627162    1.56647678073794    4.48573192966762
C        -3.70438301935053    0.61593310322306    4.36428204961537
C        -4.09160605817284    0.19638871982794    3.10626313466354
C        -3.47257858330807    0.71843878140593    1.96333642708905
C        -2.47060532579029    1.66050863165248    2.07171673437793
C        -2.06486721261054    2.10822269111144    3.32116873295066
C        -5.52808494442334   -1.22680885467318    1.83084167869510
C        -2.70529731832979    4.60079912687432    0.40007788631719
C        -0.38777906180691    5.87081146904910   -0.45036437476773
C        -0.42910370217970    3.09564981143780   -0.57938593704872
C         0.80082351135487    0.77475574309840    1.98900146672784
C         3.08552898940349    2.29412390015659    1.52070026755012
C         0.97083560560021    2.59991135076682   -0.25438041870831
C         2.21596688958145    2.97244015704728    5.44212812681632
C         3.38986110182007    5.01769652463677    3.96715573861239
C         1.20398742415792    5.66075220666422    5.57542604958807
C        -2.28752329059206    5.97665820145259    4.44364547491201
C        -0.99379828543813    7.65608962870966    2.65106814967580
C         0.46484133587971    6.76709251777740    4.84036506478073
H         1.29893287880581    5.20763634569770    1.86954008179631
H        -3.22132702491659    3.90858975577295    1.06195235021924
H        -0.27550107551501    0.64225312779928    1.89579982409621
H         3.34994830526480    1.50368894590856    0.81704300275410
H         1.35170576706734    2.36807468324313    5.70972517899279
H         3.88620694527420    4.36152408715101    3.25652916517172
H        -2.54628315804557    6.94227938301128    4.87936824623405
H        -1.22713081358079    8.45166909798431    3.35992027113295
H        -6.31142098064709   -1.95458647573003    2.04285803980232
H        -0.46851783938165    3.68915563006683    5.57909755663003
H        -2.26432018831294    2.04658194926626    6.62430925759344
H        -4.18828468385354    0.19848588222820    5.23432124829386
H        -3.76915852573377    0.38778740714346    0.97838832729282
H        -1.99496796651021    2.04708703880866    1.18344263644598
H        -5.94421431705214   -0.42638397377833    1.20661397323768
H        -4.71836414466378   -1.72386405900216    1.28237169189361
H        -2.99095953158883    5.61967048706459    0.66536714717463
H        -2.98161390836477    4.40516871787234   -0.63650160187163
H         0.68291506062396    5.80350020498435   -0.63681752011998
H        -0.93657041790916    5.84636393582727   -1.39283693308266
H        -0.58875827669504    6.80613967491928    0.06482751280526
H        -1.14854104358133    2.27798247627520   -0.50205948500975
H        -0.48087410637233    3.48976097723108   -1.60043383812918
H         1.33014772706326    0.07138787284613    1.34521492717039
H         1.07213958982424    0.60064048662387    3.03120619606647
H         3.45151588062927    2.03002106423385    2.51240776143645
H         3.53804631505091    3.23318686301858    1.20528129822137
H         1.70826419514805    3.32695410166482   -0.61349296623686
H         1.17806924105530    1.63149481246821   -0.72230369097754
H         2.92475741928421    2.34789482604045    4.89708522331007
H         2.69361999688292    3.36128244472998    6.34225288558319
H         3.98457536285331    5.08972518076470    4.87878395379160
H         3.28139871583788    5.99997201281154    3.50989351356692
H         0.56167170204177    5.21144248169668    6.33732143125394
H         2.09857455243665    6.04674771320832    6.07701721475014
H        -3.04836469171457    5.67878226615079    3.72079453561555
H        -2.24089188912149    5.21181713348164    5.21592106671354
H        -0.10240980917825    7.92003342056849    2.08381390726793
H        -1.83371222701524    7.52440659278623    1.96948523719214
H         1.18376319771668    7.37642653481557    4.28062117025461
H        -0.08370574648920    7.41832127255786    5.52947019510979

