99
CSD_code = LEHJAL | q = 0 | S = 0 | Stoichiometry = C42H46Cl2N6O2Pd | MND = 4
C         6.60020629581969    1.47804735003329   11.87218416081007
C         6.05462778923678    2.53744234274534    9.98909763480813
H         5.69489291174560    2.63678033834782    8.98610661680174
C         6.47025743992491    3.46980325490526   10.87601650076242
H         6.56739834525545    4.53255970922464   10.78996923745872
C         5.75200950712167    0.07450710854500   10.00952101974045
H         6.63515718434132   -0.54469128383457    9.81672580298424
H         5.25287668833022    0.30889034125579    9.06814959806936
C         4.78340990188527   -0.69564946682391   10.93377928737092
H         4.21020943087795   -1.39774385951158   10.32097794637022
H         5.35939664021132   -1.25843127980002   11.68887133362099
C         3.11239189081551    1.08202366210600   10.96423947462133
C         2.41787181599638    2.07589139411663   11.83267670417583
C         2.17044575125962    3.33770178266654   11.30115389062443
H         2.46691649782881    3.53588310919879   10.28144131044820
C         1.56065791941267    4.31285242821759   12.06754535308374
H         1.37858460166798    5.29276461855224   11.65080958012368
C         1.18141796304292    4.02990106151521   13.36930677650962
H         0.70442612342207    4.79012174635599   13.97061537968535
C         1.40635466003939    2.76914485300893   13.89713025223204
H         1.10308703873260    2.54527483298241   14.90909388221155
C         2.02411815844987    1.79271483367797   13.13667889742055
H         2.18511704109334    0.81259498605948   13.55848293380658
C         7.29259178795552    3.42985048394262   13.20256356554165
C         8.66727120285477    3.41253257530487   13.45478779569150
C         9.13324550707040    4.04064595685503   14.59952653626453
H        10.19324147818616    4.03390394285234   14.80827369275742
C         8.26852185897739    4.67795556388791   15.47973084736690
C         6.91338210796382    4.69832869467647   15.18834986785181
H         6.23185439084175    5.20045275143001   15.85931266931704
C         6.40218732352892    4.08927969388322   14.05026653791691
C         9.61182056161068    2.75062997172305   12.49768897632945
H        10.62255024679394    2.75385287172919   12.89533731468997
H         9.61297949129829    3.27594030400422   11.54213039109424
H         9.31768250272930    1.71765891512454   12.30316421400020
C         8.80285946691161    5.32471124143144   16.72062752379337
H         8.05117131480072    5.95638107922482   17.18623508878393
H         9.67886976197854    5.92851977994256   16.49183936422378
H         9.10283471835944    4.56203803557909   17.43909259764656
C         4.93509356080168    4.11831173963051   13.75952174691234
H         4.43072264886744    4.83909004614097   14.39671362451609
H         4.50630354419685    3.13467593003004   13.95330031390722
H         4.73239012351564    4.36662732474180   12.71929558146014
N         6.14766495861776    1.32405911883973   10.61288393398696
N         6.80231565599860    2.79923258605016   12.02467769194390
N         3.88176557699738    0.19286847594100   11.63376597439370
O         3.01280376052582    1.08710739459244    9.74780324136493
Cl        8.62555260642347   -0.76433750697667   11.92479608380098
Pd        6.89408653530841    0.00030158832913   13.22769706142868
H         4.07763448386655    0.35771987272475   12.62033679705016
C         7.18959550381494   -1.47795468556080   14.58242551388872
C         7.73476742447154   -2.53735518144938   16.46567334986603
H         8.09434441916325   -2.63668241078783   17.46872382532683
C         7.31910439688227   -3.46970084277307   15.57876528537717
H         7.22179691236704   -4.53244407553063   15.66487850801777
C         8.03739000791755   -0.07445272169399   16.44529862411800
H         7.15417760717345    0.54468631919610   16.63793726688382
H         8.53636020113638   -0.30887407236117   17.38675857638951
C         9.00594606280523    0.69566921945004   15.52094643597895
H         9.57917129558301    1.39768405800990   16.13379159050911
H         8.43006795520202    1.25853282108203   14.76582028622186
C        10.67695380387059   -1.08202536348503   15.49054539087469
C        11.37146423470270   -2.07591719836157   14.62212654800072
C        11.61897556084094   -3.33769340065077   15.15369790118999
H        11.32251885956362   -3.53585622367411   16.17341911872406
C        12.22876300930596   -4.31285984778363   14.38731395560966
H        12.41090624373165   -5.29274307907471   14.80408726080439
C        12.60795966523118   -4.02994107329031   13.08552817361467
H        13.08497574546667   -4.79016052310958   12.48423509193377
C        12.38293035522495   -2.76922061100503   12.55765487447113
H        12.68616089915245   -2.54536849061218   11.54567634957456
C        11.76513291445710   -1.79278701213112   13.31808324583518
H        11.60410293686094   -0.81268333745337   12.89624441341234
C         6.49685643167462   -3.42976723380891   13.25219216562671
C         5.12217414585538   -3.41246705808923   12.99996200598668
C         4.65621690594997   -4.04065266279983   11.85524282189392
H         3.59623344522440   -4.03387702057091   11.64644389756360
C         5.52095154053101   -4.67799627259720   10.97507036090177
C         6.87607894587121   -4.69839221695569   11.26649397944495
H         7.55762379544381   -5.20052809164131   10.59555862247131
C         7.38724816116773   -4.08927327597083   12.40455063799505
C         4.17759987759018   -2.75057116286946   13.95704761369923
H         3.16686627827026   -2.75391175555689   13.55936256920671
H         4.17645453876939   -3.27589566140432   14.91260852061388
H         4.47167415225489   -1.71754307955009   14.15153973239065
C         4.98666625183703   -5.32470895661932    9.73413230384502
H         5.73835368004342   -5.95642498967207    9.26857756364562
H         4.11061066446725   -5.92846882458373    9.96287111812502
H         4.68677776090447   -4.56201762217772    9.01564422561030
C         8.85433724235654   -4.11819245238727   12.69533785942951
H         9.35872358938591   -4.83905670830238   12.05823836240525
H         9.28305792407750   -3.13450527840429   12.50144499175815
H         9.05701517244053   -4.36643345381920   13.73560033095712
N         7.64190103903940   -1.32398082418807   15.84182750644200
N         6.98721989459204   -2.79913471648783   14.43003480107038
N         9.90759156595833   -0.19286640359391   14.82100075845070
O        10.77650454283231   -1.08711896077682   16.70698939467093
Cl        5.16330814035326    0.76289040617697   14.53088359669023
H         9.71175952468811   -0.35768028547499   13.83442006471309

