68
CSD_code = LEHJUD | q = 0 | S = 0 | Stoichiometry = C21H41NP4Ru | MND = 6
Ru        3.56226859454751    2.71139820363566    1.87171423195951
P         1.51892501954096    3.65413885840578    2.10052284187036
P         3.21669322033276    1.86775551993662    3.97353979845017
P         5.69699284163947    2.03487235660283    1.57657944292025
P         3.08670093199360    0.78679559035435    0.74670729718142
N         4.19538290572831    5.05400241006030   -0.16671056707854
C         3.51693699605310    3.88697955758447    0.13340394136578
C         2.59694309273026    3.69066895685991   -0.87548954951248
C         2.71428963000747    4.72723286674690   -1.83261784402850
C         2.07266642674961    5.03997710748094   -3.03017955042776
C         2.45382056761947    6.17797874869289   -3.70679347828599
C         3.46024651427458    7.01110733067669   -3.21425707847294
C         4.11232387962974    6.72576568227190   -2.03076057934688
C         3.73492816812488    5.58086727454674   -1.34361255778304
C         5.18035511954126    5.73678868166392    0.62212177685471
C         1.32433231837995    5.44217235511860    1.78415824525583
C        -0.04938915871738    3.04116314383575    1.36476635697442
C         1.06417411024472    3.58171445773718    3.89469397309429
C         1.45197066386532    2.21299518030452    4.42609746507934
C         3.32788007338552    0.16300832085888    4.67580904316412
C         4.05266143654814    2.74840908562476    5.35443539996274
C         6.85496978599529    2.82688198586208    0.39295637221431
C         6.82809959906573    1.88769797339881    3.01815742830351
C         5.75985701983409    0.29819688533129    0.91117447639802
C         4.44115836415086   -0.38848011958104    1.21854040158094
C         1.62854453756713   -0.29117538459292    1.04954466941154
C         3.19448208296187    0.57167597798538   -1.07862856946766
H         4.04912067180669    3.97193698798296    2.61189498891990
H         1.90403491668023    2.86967140797769   -0.93922908737119
H         1.29110520133285    4.39962298301117   -3.41762465699458
H         1.96804064720375    6.43739866783290   -4.63781909231179
H         3.73146345380535    7.89683368677998   -3.77193836334148
H         4.88864384997472    7.37913914201170   -1.65751390445989
H         4.80795172747144    6.72012760940353    0.92806730952545
H         6.10071278023064    5.88241768859830    0.04850004795409
H         5.39238393230355    5.14792283083863    1.51364166619794
H         0.39211362084006    5.80402566401853    2.22120916169094
H         1.32335649445665    5.61086438755201    0.70771921900387
H         2.17614475049878    5.96051010558550    2.22385720480449
H         0.03352951554812    3.06818128128858    0.28035205878811
H        -0.87583450243188    3.67816127390790    1.68080815380310
H        -0.23062302748538    2.01660637477933    1.68766284969192
H         1.64966967267292    4.35870961110702    4.39810607212688
H        -0.00119734626259    3.79014937081001    4.03995668542079
H         0.83737299268679    1.43938826387799    3.95063625092456
H         1.32159089830231    2.14103448678448    5.51189992001951
H         2.75688200110159   -0.53741875255831    4.06770975256088
H         2.93667443216656    0.15858517253478    5.69370945007295
H         4.37101807108863   -0.15521546955971    4.69449966573014
H         3.62206890490024    2.46578065455903    6.31618243443172
H         5.11362429983766    2.50359880451050    5.34294662247986
H         3.94895399731261    3.82061925647635    5.19326524828615
H         7.68785413047666    2.15424329798758    0.18124596174710
H         6.31507749782117    3.05785545705134   -0.52534185319157
H         7.23344204434456    3.75125414724683    0.82542071626014
H         7.81496432056338    1.54482077848824    2.70501714477412
H         6.40102463921748    1.18662879589502    3.73559782176736
H         6.90935934608717    2.86875002512142    3.48681397061765
H         6.61484409269395   -0.24256692658824    1.32966658582515
H         5.89004518119240    0.37486212656203   -0.17321424183382
H         4.33765508950170   -1.33816770058479    0.68181348387096
H         4.35963550887175   -0.58247793335691    2.29167708105189
H         1.43816541110431   -0.36914697717253    2.11958673944560
H         1.79950004845089   -1.28418732030857    0.63128030495386
H         0.75785255330794    0.15496150875019    0.56889757339933
H         2.22489440224340    0.77503784666954   -1.52961536201745
H         3.91644865968363    1.27911672998373   -1.48518001583841
H         3.48882037624814   -0.45202435326453   -1.31613895642759

