73
CSD_code = LEHJOZ | q = 0 | S = 0 | Stoichiometry = C37H25F4IrN4O2 | MND = 6
Ir       -1.08215246518626    4.01523872185435    3.88134648627984
N        -2.47169214442607    4.05872624452555    2.46731989323916
N        -4.35076680428923    4.24003444764739    0.46606403712675
F         2.62688773143048    7.43422848281537    1.91292894757834
F        -4.06773307370022    9.46918409562906   -2.86965375387786
C        -3.53105702421782    3.25173081748235    2.44375495167174
H        -3.66150894252749    2.57430248171004    3.27441218330065
C        -4.41918352175525    3.29130463799345    1.38241931680978
H        -5.22732466879969    2.58148248959570    1.28573339457106
C        -3.35531856797003    5.11482056280425    0.52782967975505
C        -2.30960107207220    4.95618006728611    1.46463253901874
C        -1.02791810679508    5.64129957082122    1.50039342160921
C        -0.28785578906171    5.42384105986112    2.68612673583138
C         0.94437919708100    6.05331697738089    2.80577107197938
H         1.55319302873013    5.94472346768918    3.69129927586240
C         1.42792746577098    6.82967444868172    1.76879101785906
C         0.73965153919177    6.98817846153172    0.57759519439168
H         1.17241857214483    7.56605880642835   -0.22299368962782
C        -0.49374075294059    6.38521170696272    0.44703635280828
H        -1.02782761487026    6.47544923431308   -0.48534972642638
C        -3.48403068542830    6.26388048612017   -0.38045811974411
C        -3.29258959093959    7.56192188341587    0.09252354578753
H        -2.99316376661258    7.71989865895868    1.11741334645049
C        -3.49174187250265    8.64398216493823   -0.74165715027074
H        -3.35253870430804    9.65448334997629   -0.39230229350857
C        -3.88298014684288    8.41571772737117   -2.05039517716172
C        -4.09593715523612    7.13921792047132   -2.53936859331505
H        -4.41051926731307    7.00181188998654   -3.56163959611333
C        -3.90559947863519    6.06400709733794   -1.69220807763765
H        -4.07611675784812    5.05776729272885   -2.04047988914481
C        -0.32836612084228    1.15139903648135    2.88657806391070
C         0.38353002914218    0.23874211683490    1.90540045064058
H         0.95353059721916    0.83532941722442    1.19741480147340
H        -0.34383147501128   -0.36351258070050    1.36492405836266
H         1.05437559301740   -0.43348485964318    2.43647128144090
C        -1.08213108057109    0.52180842822883    3.88149709736183
H        -1.08213826525849   -0.55784231574794    3.88152650341733
O        -0.16326602787355    2.38647362814726    2.72499639940717
N         0.30725014814707    4.05874351873275    5.29552541465231
N         2.18609881336622    4.23993921827438    7.29702102686965
F        -4.79113023910927    7.43461925579903    5.84925218707131
F         1.90280676177649    9.46894327247164   10.63295649772900
C         1.36659093615093    3.25171392909990    5.31920324015579
H         1.49716264413416    2.57435083101239    4.48850856863406
C         2.25458621335918    3.29122379959288    6.38065491098108
H         3.06271814889370    2.58139385912017    6.47739843162464
C         1.19071075594186    5.11478296763505    7.23513669270030
C         0.14510323790989    4.95621154240775    6.29819645210114
C        -1.13653662470531    5.64138881619343    6.26229684933534
C        -1.87650273580687    5.42388053564542    5.07651291310220
C        -3.10866045238583    6.05347588321341    4.95669412535265
H        -3.71735993394487    5.94494959635688    4.07107695623922
C        -3.59223623231386    6.82997406207807    5.99355645471377
C        -2.90408510308136    6.98847626165197    7.18482232419480
H        -3.33690646473764    7.56640789624208    7.98534639842657
C        -1.67076777159450    6.38539763396566    7.31555636915003
H        -1.13679493373828    6.47562253337961    8.24800831857555
C         1.31934252017045    6.26378900683807    8.14350991027949
C         1.12808719283584    7.56186574149351    7.67054944998422
H         0.82889595269847    7.71990765144892    6.64560229386150
C         1.32716611577118    8.64387522791252    8.50481328878025
H         1.18812615239145    9.65440127340090    8.15546929323327
C         1.71812887983150    8.41552539345235    9.81361883221935
C         1.93090103964648    7.13898834982664   10.30257734476479
H         2.24525006417941    7.00151444559096   11.32491024235502
C         1.74065152968107    6.06382752083100    9.45533139026543
H         1.91098416603312    5.05756014544393    9.80360628655987
C        -1.83587525542525    1.15146282605282    4.87639094334648
C        -2.54780516535911    0.23885511914315    5.85759252210019
H        -3.11779645237973    0.83546953930604    6.56556249684827
H        -1.82044606961041   -0.36338439449884    6.39808480078475
H        -3.21865804296341   -0.43339174276860    5.32655376346113
O        -2.00096260565457    2.38655035850674    5.03790902842758

