38
CSD_code = LEHLAN | q = 0 | S = 0 | Stoichiometry = C17H12I4N2NiO2 | MND = 4
Ni       -0.25521085054818    5.30209813312215    1.79147420122011
I         1.95113083501787    9.47334990847339    1.22981538473087
I         7.21654990600598    6.51219188909548    1.82723569954481
N         1.01762374525461    4.00471244061546    2.31003874134366
O         1.01342904169529    6.64317337547448    1.82428679631534
C         2.28314573695744    6.55502433510286    1.82607319676755
C         3.05786146871879    7.72446849552191    1.59358950809168
C         4.42379558492905    7.71530266932869    1.58656446861863
H         4.97407134400526    8.62387133479957    1.39605609256930
C         5.10119002610805    6.51603304986893    1.83349532368159
C         4.41586189911221    5.35841315254952    2.08008963579867
H         4.94255793557638    4.43594009726621    2.27356360762994
C         3.00913650719964    5.35063530312212    2.07444355486209
C         2.29770512273238    4.16357377726011    2.39012296602100
H         2.90150688058820    3.33555655213156    2.76866040137840
C         0.45397054718247    2.77766262232331    2.85144909959300
H        -0.27184644219475    3.06285154285567    3.62232538735424
H         1.23732282491524    2.17754417082637    3.33142836291241
C        -0.25516518891152    1.92294671923681    1.79144029116269
H        -0.97665504654379    1.28202437792202    2.29944548276589
I        -2.46121390680255    9.47339301694491    2.35227874456327
I        -7.72699353543892    6.51213491864540    1.75701763920064
N        -1.52806574838594    4.00470401726027    1.27308966150699
O        -1.52382397844598    6.64323145025165    1.75849587426051
C        -2.79354029852007    6.55507043357219    1.75687214101279
C        -3.56825552345442    7.72449758451509    1.98950138830346
C        -4.93418946867947    7.71531952468385    1.99668511180427
H        -5.48445443972048    8.62389797414695    2.18709439577406
C        -5.61160434547154    6.51601269109880    1.74992647751094
C        -4.92628302351392    5.35835918594382    1.50346562282066
H        -5.45299651998901    4.43582431072861    1.31034971512435
C        -3.51955790012470    5.35062032925217    1.50885289538304
C        -2.80816094952717    4.16352507837679    1.19320791780828
H        -3.41199290631760    3.33549663166792    0.81474607122215
C        -0.96443977127798    2.77769608453083    0.73154634001761
H        -0.23872027706585    3.06294114031579   -0.03940196674453
H        -1.74782790906628    2.17758381088652    0.25161935978174
H         0.46643862400077    1.28221787028405    1.28335440828742

