35
CSD_code = LEHMAO | q = 0 | S = 0 | Stoichiometry = C12H16Cl2HgN4 | MND = 4
Hg        6.24092978539957    5.74091900216359    3.53889923343203
Cl        4.24222416829065    6.62115420174272    2.79419392240247
N         6.83600108843419    4.15380990597605    1.85400333245562
N         4.74435808605037    4.05156544565797    0.88298851589635
C         6.04013374930301    3.67856173815461    0.88170092953549
C         6.52316202460635    2.76376572371515   -0.09175819892253
C         5.60952717251923    2.25226742660970   -1.16382066877884
H         6.13824464974760    1.54909336721957   -1.80193313158080
H         5.24519252114532    3.06971088515670   -1.78711157237528
H         4.75059885154450    1.74339537632739   -0.72720733279811
C         7.83754681230322    2.37027195689413   -0.01393033996619
H         8.23672687698269    1.67885767238722   -0.74211221593787
C         8.65375295856216    2.86257582671397    1.00448957997362
H         9.68598201417997    2.56455838714533    1.08269441266869
C         8.11099598440117    3.74232554576254    1.90693665197414
H         8.70512030709174    4.15693893513503    2.71067860562973
H         4.19304082587122    3.88285248333329    0.06062009835375
H         4.45750298729110    4.82558724450188    1.47448104132799
Cl        8.24013274083730    6.62068575773020    4.28333832501084
N         5.64479014152982    4.15372732824948    5.22342305642496
N         7.73639948534655    4.05164167180344    6.19444868326995
C         6.44063738863508    3.67856578909003    6.19573669439844
C         5.95767819818511    2.76376397908850    7.16922581055580
C         6.87144778658338    2.25246054945635    8.24131759267524
H         6.34295038750255    1.54902658923807    8.87933057628780
H         7.23547451127697    3.06999330888522    8.86472531774156
H         7.73058901031401    1.74393235101688    7.80467234973179
C         4.64337264472747    2.37005229885562    7.09132720502377
H         4.24427976154180    1.67860250602471    7.81952885856035
C         3.82714108650332    2.86231461549108    6.07291281670898
H         2.79498106492983    2.56403094986196    5.99461673813095
C         4.36984575299717    3.74214872405644    5.17049755876887
H         3.77576628310674    4.15646398598661    4.36654170498185
H         8.28769365794971    3.88307957956781    7.01685981779316
H         8.02327923432004    4.82559889100914    5.60288403065440

