43
CSD_code = LEHMIW | q = 0 | S = 0 | Stoichiometry = C17H17N2O6V | MND = 5
V         4.49010515714539    0.13253251070544    6.30663652488531
O         4.09977618365607    1.20058140715068    7.57609080656669
O         5.04123189962098    3.02105164571074    9.22227437289171
O         3.95545820053632   -1.48668115271282    5.51983233649410
O         0.41535690950596   -1.69995678743066    3.27233692021344
H         0.71560654960762   -1.00110512819932    3.89549802978481
O         4.92411293891940    0.95661424326849    5.09942649496617
O         5.70276607994873   -0.67646896855806    7.02235176486729
N         2.49642623820762    0.42896760394298    5.82606839472143
N         1.99987962450048   -0.50581884572632    5.00365000130531
C         3.43351815932072    2.31092101579590    7.68443105054928
C         2.25135020921024    2.52266275399740    6.93971206558794
C         1.53360450520852    3.71934371887429    7.10468771603040
H         0.62944416480250    3.87050355031045    6.53508233697928
C         1.98720340720729    4.68303452461023    7.96826213515804
H         1.44013595357271    5.60510041827192    8.08946371623513
C         3.16171416636567    4.49408387807628    8.69985529488033
H         3.49313161037150    5.27566065500461    9.36485270937847
C         3.88569354252793    3.32534809237973    8.57184381808044
C         5.60402201811986    3.99458445602997   10.06750501102759
H         6.52524709549259    3.55703455133561   10.44838366070160
H         4.94130529335711    4.23004938820365   10.90694375285773
H         5.83822054235055    4.91274150352549    9.51934384000693
C         1.80444710218654    1.49377128457354    6.05584626940718
H         0.84341774390386    1.61496837893546    5.55189344200490
C         2.86580388342620   -1.48916567124011    4.85212690096376
C         2.56082056185502   -2.59108022290652    3.93697688910532
C         1.36402087320960   -2.64123978562663    3.19674303024550
C         1.14707802210331   -3.72444082449592    2.34208487856915
H         0.22530361466946   -3.74839587984583    1.78250880623923
C         2.08456495225985   -4.72695124599092    2.21949323967011
H         1.89578797345655   -5.55505995670189    1.55274934728197
C         3.26866112202092   -4.67746213024400    2.94616035168135
H         4.00110690441112   -5.46332236438232    2.84531833605657
C         3.49940499924053   -3.61762553363755    3.79362222397417
H         4.41240946745148   -3.54989450373635    4.36779780409081
C         6.98615885485764   -1.13470728954495    6.97035632173278
H         6.96307432558544   -2.21927784234425    6.75212958451391
H         7.46008168241034   -0.99231550524808    7.95764588825166
C         7.76896162661687   -0.39494857644360    5.88505153839005
H         8.78338095241439   -0.77795833892451    5.80949567948007
H         7.79074605641418    0.66919163319903    6.12430189445745
H         7.24965883194846   -0.52257065996373    4.93256481971449

