70
CSD_code = LEHQIY | q = 0 | S = 0 | Stoichiometry = C36H29BrNNiPS | MND = 7
Ni        4.16026065522724    3.47428475124080    2.44044661796529
Br        8.04293291281269   11.33521826960900   12.68637163480386
P         2.91891773461177    5.14282231845101    1.91460841754573
S         2.88639844898492    3.27218813778110    4.25598660679363
N         5.47777231905396    7.03961180279255    7.98612132868365
C         7.06332926321303   10.25968759848720   11.45657134021173
C         7.73922851696646    9.33923534194573   10.66900711775481
H         8.81022946651956    9.23637485770492   10.75562315541054
C         7.02497829086404    8.56228762338221    9.78259744619293
H         7.51998807460712    7.83604838686627    9.15783711475229
C         5.63736828026882    8.69524174296455    9.67257361162702
C         4.98250249804107    9.63032914242200   10.47655387744334
H         3.91030215650898    9.74320288235074   10.40315355575212
C         5.68927101392446   10.41267333962269   11.36798739869116
H         5.18244070014814   11.13432460240484   11.99045150644327
C         4.88772941307369    7.86986554194149    8.74762740930182
H         3.80004464183146    8.02493250352059    8.73858647064549
C         4.82064216287561    6.17853586268022    7.14294800178870
C         5.47956433972471    5.80296011300258    5.96651474117952
H         6.44415257278763    6.23787034474424    5.75298337335572
C         4.88725099515378    4.93210909177115    5.08544674350051
H         5.38009715751638    4.66177825283661    4.14678276493149
C         3.63865567758014    4.37566277261912    5.36582467604016
C         2.99616914875601    4.71096816678035    6.55756462630899
H         2.04215531035022    4.25970215310072    6.78386553047172
C         3.57329315601449    5.60611478787856    7.42697907239024
H         3.07774590919462    5.84471571725851    8.35729044127152
C         6.26919699800457    3.07977675851945    2.15794362023996
H         7.13277168909853    3.63155637659863    2.49379843752665
C         5.63078560286424    2.02526641368703    2.83013922151038
H         5.93730802070617    1.59191392277297    3.77102833181111
C         4.66634129783691    1.42823071322595    1.93199057904551
H         4.14145602705169    0.50487209783720    2.12082138821859
C         4.66273460198930    2.16729320033175    0.75880698248769
H         4.13929195007321    1.92887645417814   -0.15392402744921
C         5.59863912293524    3.24904963300213    0.92704899998893
H         5.89556041249423    3.93204418721554    0.14393150526231
C         2.63371426216699    6.39546956552014    3.19776032855893
C         3.69385547698402    7.23531325550240    3.53302742044514
H         4.62411896201603    7.15865323705674    2.98438541989370
C         3.56155084030365    8.14692893549116    4.56310827204748
H         4.38607254115295    8.79546430779641    4.82000708670055
C         2.37736960976487    8.21135816734603    5.27855743889444
H         2.27639143079554    8.91809554104307    6.08891754558848
C         1.32968998591112    7.36200566197450    4.96435341343361
H         0.41252867947650    7.40158018684198    5.53324692648941
C         1.45487078987961    6.45101505864776    3.93081165827348
H         0.64715092950862    5.77106120130731    3.70271141162884
C         1.26195613779006    4.54838155331462    1.45148951267797
C         1.02272706683486    3.18040076181208    1.42608109373509
H         1.81445923181054    2.50149370898483    1.73794554556533
C        -0.20967903648640    2.69939461478824    1.02235663473753
H        -0.39630569612273    1.63592426674893    1.00662359424684
C        -1.20300351258397    3.58515973362865    0.63883960226937
H        -2.16671115598534    3.21240080261040    0.32455420933926
C        -0.96346397651325    4.95105184938653    0.65352017303560
H        -1.73933880392850    5.63844181885727    0.34946657073373
C         0.26770774617961    5.43648500438891    1.05229847609011
H         0.46363430407596    6.50019089869624    1.05758767838859
C         3.25203239861635    6.13022836755638    0.40750903581727
C         3.27539294431648    7.51758039669246    0.35726035993326
H         3.12578856705997    8.09922571153513    1.25510235352710
C         3.48424876391396    8.16062685349576   -0.85160720339303
H         3.50298769412859    9.24027729710659   -0.88433496675647
C         3.66495767369231    7.42997547234702   -2.01314507732356
H         3.83023847530882    7.93797789853063   -2.95158964670761
C         3.62873825161573    6.04482027097335   -1.97018930177802
H         3.76075573916994    5.47088115373255   -2.87575759976693
C         3.42361194293423    5.40082176294539   -0.76617732513839
H         3.38654519065189    4.32018882255676   -0.72001025785362

