27
CSD_code = LEHQIA | q = 0 | S = 0 | Stoichiometry = C6H16I2N2Pd | MND = 4
Pd        3.18193533429926    7.67923902159680    2.51417049591373
I         4.57046745526685    9.49011088391070    3.67964149673942
N         2.14903333802011    6.02815772370213    1.47397946039931
C         2.93685160860948    4.83082250815231    1.79103347583350
H         3.79732219642209    4.79631179919640    1.11442586122375
H         2.34037900136838    3.92113957707140    1.61328946255688
C         0.80467168946468    5.94229372875797    2.04812594177298
H         0.21936692282631    6.80919784829657    1.73737605619732
H         0.84742666228329    5.93745190829878    3.14115023089097
H         0.29009599730592    5.03232154072046    1.71027046322742
C         2.04525887755020    6.15260906231951    0.01887433835897
H         1.63533031848144    5.23484300481475   -0.42210982940541
H         3.03156122117850    6.34552072394622   -0.41119746824976
H         1.39279866952806    6.98498219888562   -0.24113504217687
I         1.79397548372661    9.48982921818137    1.34876726703138
N         4.21506041475726    6.02821365552262    3.55424197501276
C         3.42726939316651    4.83085085943410    3.23722001605035
H         2.56680158162701    4.79634510243030    3.91383180439856
H         4.02375191897151    3.92117877155573    3.41498912453839
C         5.55944646124838    5.94231001788217    2.98013226880782
H         6.14474878109428    6.80922322858867    3.29086230565071
H         5.51671450931241    5.93741207603771    1.88711013688803
H         6.07401266417767    5.03234156649758    3.31804060210356
C         4.31885400684478    6.15263029562775    5.00935642455454
H         4.72871078307201    5.23482281868934    5.45032872776446
H         3.33257077276831    6.34560240878541    5.43943766516473
H         4.97138393663030    6.98493845109834    5.26938673875224

