45
CSD_code = LEHRIZ | q = 0 | S = 0 | Stoichiometry = C19H17N3O4PdS | MND = 4
Pd        0.29318093446246    2.87793974932315    0.47881543115063
N         0.01759290536974    0.92107419361687    0.56460945451043
N        -0.84498347342065    2.66876269632461   -1.14675790639232
C         0.43213454138038    0.12327395964858    1.54042740779338
C         0.33674077966244   -1.25509581236811    1.45365141999985
C        -0.21228656467675   -1.81885403273955    0.31006047636083
C        -0.65444222244720   -0.98564978508738   -0.70127893257471
C        -0.52582455239608    0.39462492176171   -0.55161691135804
C        -0.97395956632202    1.38185253366048   -1.53956052152100
C        -1.50177338380149    1.06967573680793   -2.79194686370871
C        -1.90001249516255    2.09175818029673   -3.63496353311326
C        -1.75865051644952    3.40747553464783   -3.21196399619861
C        -1.22170635114870    3.65080801249931   -1.95973260142605
O         0.37334615739842    4.91105709078414    0.29533940175801
O         0.82120943911019    6.84156010577042    1.26243568871089
C         0.54255872684753    5.65931283525229    1.32445654176034
C         0.37794484680541    4.96081250044427    2.69282963896459
C         1.58557141272887    4.04406001661296    2.92658127127010
N         1.57201654543425    2.92373396324230    2.01224669823119
S         2.90761523205699    2.67268061495886    1.14109325189130
O         4.09274275746113    2.76387254093630    1.95187227729437
O         2.67747141412435    1.41833936564423    0.43778371234562
C         3.00148663090522    3.93008948278841   -0.15139770398091
C         3.57123776129198    5.16165467572494    0.09911555246688
C         3.51485069543444    6.14726719608553   -0.87474474308646
C         2.90414924899974    5.88517533762016   -2.08829493050118
C         2.36879030550836    4.63180695857537   -2.34956342908674
C         2.41266549036019    3.64674760979066   -1.37691301347063
H         0.87608517207199    0.61680084916530    2.39635927428735
H         0.69516313032085   -1.87329697470923    2.26039550451616
H        -0.29259941930300   -2.89014425327494    0.20706623453147
H        -1.08679411795801   -1.40198497739752   -1.59660405948115
H        -1.59054364906486    0.04289628715553   -3.10691768064838
H        -2.30922745281043    1.86685360962835   -4.60779099393402
H        -2.05495862028871    4.22938758872044   -3.84305774139982
H        -1.06905253436214    4.65617738122924   -1.58358502097340
H         0.31588913733434    5.71465213807633    3.47841786114539
H        -0.53947679439796    4.34354473500645    2.67972074699688
H         2.51699728138203    4.61194340255122    2.82272694889793
H         1.54672941929807    3.64789446725380    3.95209865870221
H         4.04795485612713    5.34113133191687    1.05007994510126
H         3.93229496984572    7.12203335264032   -0.67612721823994
H         2.84570091528092    6.65993855967695   -2.83833486738181
H         1.91534961310007    4.42566965472261   -3.30931662860237
H         2.04602139407647    2.63488666510005   -1.56881410174753

