61
CSD_code = LEHSAU | q = 0 | S = 0 | Stoichiometry = C22H28Br2HgN2O6 | MND = 4
Hg        2.11318932586081    4.47084048592831    5.28897441774235
Br        3.02032129549691    6.72612773213859    5.00900916352801
Br       -0.02516658014958    3.31370006017575    5.56945265711142
O         5.97441659312721    6.17755340740253    8.05159323763581
O         4.82108787603341    8.64422072610139    8.97867050109410
O         2.16224732656126    8.70823065533607    9.50342392104726
O         0.90786264652994    0.38947189727880    2.56820788992152
O        -1.67495465564387    1.21938221910207    1.60961070789823
O        -2.06533212083938    3.84650424647578    1.06544552653902
N         3.82124527878835    3.33269110637492    6.67198081089998
N         3.45792722587591    2.89196342482425    3.93743056753592
C         4.42849807497757    2.18022798264567    6.06324694013914
C         4.46307996080689    4.01625648494732    7.53239702222438
C         3.86785821172160    5.19188375966316    8.13177355131870
C         4.66199372177877    6.34268647049467    8.33484413616838
C         4.05205456034549    7.52468431677563    8.77224868437225
C         2.66690804514658    7.53813363504160    9.04216177906383
C         1.90608824107785    6.38562250127795    8.86642860449013
C         2.50070538141687    5.23233383945028    8.40127708220699
C         6.81198477930791    7.28211115140220    7.76677670782036
C         4.43016914766691    9.82393844658671    8.29177519192695
C         0.77416753741770    8.81414772601712    9.72051061631816
C         4.66908237250628    2.43450524787012    4.56282317950582
C         2.86155414936268    2.16045883863685    3.08370128255267
C         1.62590031412696    2.60062686376527    2.47172343643133
C         0.58348021163039    1.66839659129466    2.26970198536487
C        -0.66158063515601    2.12335102840540    1.81888416031729
C        -0.84514577787424    3.49412965021682    1.53788119972987
C         0.20272509620452    4.39353680425074    1.71441836751536
C         1.41798848548047    3.95001127344575    2.19003757176581
C        -0.08602468153927   -0.57908409698298    2.84475945038294
C        -2.89790738908063    1.46125094922075    2.28941983382026
C        -2.34252899694796    5.20978896949512    0.84193142885140
H         3.72799824024615    1.34505214919057    6.16718913392462
H         5.38329140643311    1.91976789403963    6.54036685549780
H         5.48873432048829    3.76447076302746    7.81490752017799
H         0.85351098477071    6.38026836644704    9.09658443343486
H         1.91732436782221    4.32218666064558    8.31898833675782
H         7.74456350003799    6.84059264793653    7.41473545246862
H         6.38527569562701    7.90484915916779    6.97780662650236
H         7.00090483198068    7.88661353610028    8.65485532418933
H         5.31209879858413   10.46371312587021    8.28602164082691
H         4.13207489168123    9.59815049952383    7.26435122525843
H         3.61220539265871   10.33285175642564    8.80410646625714
H         0.60628995674070    9.84461787821227   10.03020504751454
H         0.20981497081704    8.61402389843650    8.80525486132023
H         0.43908272070261    8.14047066142328   10.51488548470286
H         5.41539381511753    3.22889239320881    4.45852681682331
H         5.04715711581796    1.51275861933980    4.09948991415071
H         3.23666850353298    1.16886960638372    2.81688544679506
H         0.07862960057165    5.43705539068932    1.47654160294980
H         2.24842683009475    4.64243624079157    2.27191925636057
H         0.46483529645070   -1.44733343602338    3.20703793130709
H        -0.76715581976243   -0.23115819021694    3.62414856147049
H        -0.65117123663243   -0.84603973790989    1.95087617549530
H        -3.42922469230084    0.51019112450171    2.27962880372183
H        -2.71683360770309    1.77216913535078    3.32196298032248
H        -3.49548457329064    2.21953585833396    1.78122802370538
H        -3.38434270146556    5.24667146537772    0.52703107527989
H        -2.21873612733955    5.79781499563741    1.75574576664670
H        -1.71202750368560    5.62332314302774    0.04909762290012

