61
CSD_code = LEHVIE | q = 1 | S = 0 | Stoichiometry = C24H30CoN4O2(1+) | MND = 6
C        -2.17610472455212   12.01875878741581    4.02272237129617
H        -2.66333003838363   11.94496282736415    4.99364109189118
H        -2.90404108082533   11.76614192242035    3.25178221420359
H        -1.86889923259983   13.04997191004482    3.89074848926709
C         0.22647484070776    9.86977860742727    0.29449081387120
H         0.93043463731124   10.68324844881556    0.44843418249837
H        -0.72510299055240   10.31033358086588    0.01210981172078
H         0.56446538462489    9.25091011259341   -0.53600530330698
Co        0.52039773518427    8.59869115201478    4.34256504865833
O         1.45757100790068   10.03415619563310    4.97831829176124
N        -1.09280317385404    9.82282426005194    4.19637041179590
O        -0.38437451296475    7.16217705162954    3.67697564982216
N        -0.00616641939080    8.04877955654685    6.02211070114250
N         0.97793793048774    9.03102413792605    2.46348012893585
C         0.29136542342641   11.72348767479018    3.74065191635571
N         2.07332881594827    7.62116333040204    4.60107868312554
C        -0.99169219671337   11.09171181062722    3.96361711697300
C        -1.14868772906854    7.18700518005931    2.63450697523121
C         2.67221919139951   13.19434026899748    3.79161022999176
H         3.57677019771239   13.78101669141315    3.83583040846969
C         1.43175255912233   11.20165725412957    4.41597330122633
C         0.05304568996678    9.05413053581911    1.54587816858158
C        -1.11622369982381    8.21684760241779    1.64039646589340
C        -1.36243490083938    7.84231879267368    6.43711217535495
H        -1.37087039375875    7.64077888572278    7.51620243805287
H        -1.76345734718976    6.94413997128382    5.93569354200973
C         2.24453734951410    7.22992491203868    5.96878644390543
H         2.80000802990452    6.28436742847611    6.01745454006466
H         2.82870595097555    7.98879163804104    6.51245492775166
C        -3.02731282952005    6.15536481927754    1.49067946122329
H        -3.74733398056276    5.35549958184919    1.41343627255242
C         2.59238541593718   12.00972081373217    4.47695791748722
H         3.42529805625372   11.64240301362520    5.05707384615748
C        -2.28614476929206    9.01775291906326    6.14653167206201
H        -1.91856058808740    9.90927227939827    6.65817193286497
H        -3.28249363455806    8.78514167007176    6.52361934502364
C         2.35055865199059    9.32715607840625    2.10022875460031
H         2.71067073858175   10.21587441437362    2.62415993575572
H         2.45280239325465    9.48830967645934    1.02593340170564
C        -2.36245475605347    9.28042015025146    4.64171264520907
H        -2.54645419011585    8.33602531870334    4.12637984378039
H        -3.19513979560574    9.94639624403877    4.41494751446798
C        -2.08922325239200    6.13831940177230    2.48776501132859
H        -2.05492226726766    5.34069418052581    3.21379792506553
C         0.42347422262530   12.91712635638712    3.01569512278058
H        -0.40462927867546   13.26938172404699    2.41900163213526
C        -2.12368332625614    8.21390697181567    0.65731730451627
H        -2.16611838693163    9.00183721527613   -0.07675419108567
C         1.59922813920899   13.62862406442602    3.01137666361270
H         1.68581052781948   14.53074173556521    2.42749861635258
C         0.87613826270504    7.07971819885985    6.60129121278000
H         0.93288307909764    7.23028234441515    7.68764054156204
H         0.48994781434470    6.06380336748076    6.42634473257048
C        -3.06769763117441    7.21986896808438    0.58746147432131
H        -3.82736653033759    7.24950730239149   -0.17693373406417
C         3.32098207579619    7.95059494480445    3.98218748179440
H         4.03476514349261    7.14453904407126    4.19812751875436
H         3.72959774774591    8.87392116258570    4.42792042829882
C         3.21906530395250    8.12334907099312    2.47550702344588
H         4.21829974198011    8.27331535996893    2.06533233990693
H         2.79230159837408    7.22149107963716    2.03349911649146

