93
CSD_code = LEHYUV | q = 0 | S = 0 | Stoichiometry = C45H38ClN3O3P2Ru | MND = 6
Ru      -15.09613544929926    8.46729929510278   16.74028332111548
Cl      -17.28247582762742    7.99981494344839   15.91999018113474
P       -14.38575467606366    8.75681907805427   14.50208590530010
P       -16.01833721240930    7.92423539565294   18.83528538432858
O       -12.64835645208183    9.49531044634498   18.09517575602509
O       -15.83319155322413    4.11799253298272   16.09103547778438
O       -14.79042077249026    2.64552328845037   14.92310940573667
N       -14.63927596262273    6.43644723491005   16.61048983769425
H       -15.47447119257574    5.84339229465429   16.60989557048675
N       -14.80056866131294    3.69769409425669   15.55459467079010
N       -15.79946227295120   10.29581336828148   16.73604686935911
C       -14.83797519917443    8.59991485339706   21.34905548230963
H       -15.70458376471684    9.20834334354769   21.56845289198193
C       -13.53115881666208    9.02356361118752   17.52779778386902
C       -13.58081437107057    5.77683453048940   16.16843193115426
C       -12.29302527701940    6.38542012517343   16.19229777505588
H       -12.22997776309918    7.38544149821468   16.59785610772415
C       -11.16909855730350    5.74918003148823   15.75776635789675
H       -10.21531776552883    6.25412689001602   15.81497006916270
C       -11.23533398727223    4.44813290027757   15.23844169478374
H       -10.34232456270573    3.95426364737526   14.88998878637748
C       -12.44591404935088    3.81661802365639   15.19467696461861
H       -12.53862850801295    2.81124332069011   14.81197449515187
C       -13.61801545413633    4.43543316964557   15.65803302107218
C       -16.50466618422956   11.18817603513632   16.55987521600765
C       -17.35305973048942   12.32280672122146   16.35429829818802
H       -17.39532553516777   12.55607839619213   15.28955030345124
H       -16.96435221127460   13.18137505364319   16.90142806135169
H       -18.35524558338363   12.08923204887120   16.71408913862308
C       -14.71392541818855    7.49677817083336   13.22988568837103
C       -15.46252238013880    6.35814369392292   13.49455196287431
H       -15.90271399339210    6.21396211487921   14.46930199887499
C       -15.67765780363362    5.42169457479410   12.49725865083243
H       -16.24845814488858    4.53173820101391   12.71551731302839
C       -15.16103291328615    5.62557177498153   11.23034009054657
H       -15.32317667339221    4.89170094516517   10.45492011716890
C       -14.44694748012497    6.78162170672149   10.95043135684166
H       -14.06203054043994    6.95298664915015    9.95540651058701
C       -14.22598035945493    7.71746199509457   11.94135205877786
H       -13.67684658303789    8.62427969906094   11.72279953546037
C       -12.59851656912398    9.07381909350541   14.37378492564343
C       -11.70293884098091    8.23958501287019   13.71774653205915
H       -12.05565618935176    7.35092300435628   13.21551242043649
C       -10.35082719676704    8.53777320016614   13.72447488734638
H        -9.65935779248527    7.88534291718871   13.21191484503582
C        -9.88315681077377    9.65818693946018   14.38936814044943
H        -8.82720773534206    9.88472213675312   14.39253033416403
C       -10.77029091963193   10.48422534893718   15.06253685852015
H       -10.40763981121338   11.35198508534820   15.59366548493861
C       -12.11963689357158   10.18972694911917   15.05975639434712
H       -12.82136522235763   10.82032554334306   15.59625405561856
C       -15.11088334954063   10.19431436589573   13.62767009180746
C       -14.37746211497518   11.26098469054993   13.12005612586050
H       -13.30316029880880   11.28947833508287   13.23066575546178
C       -15.02063782231465   12.29246678199757   12.45706888916710
H       -14.44174128856657   13.11547387856079   12.06300746590991
C       -16.39494503277758   12.27026501796487   12.29109214252328
H       -16.89061579130993   13.07810835152488   11.77244413193244
C       -17.12949159776580   11.20206889336424   12.78242523024961
H       -18.20088952359256   11.17113846174860   12.64470345608161
C       -16.49258179391668   10.16801236788573   13.44233183080872
H       -17.06512026034296    9.33308486798027   13.82441057034748
C       -17.21432182570353    9.18390951445757   19.36540393581316
C       -16.74671917365976   10.47895148158755   19.58860609676022
H       -15.68401698419938   10.67976288572808   19.50799232475274
C       -17.63176258421695   11.49082421068910   19.90650847829665
H       -17.26542500299364   12.49103213534583   20.09056608650243
C       -18.99064552973929   11.22341903623261   19.98534495335016
H       -19.68264772516736   12.01648481159644   20.22906205197142
C       -19.45985922258591    9.94248084083795   19.74748909330803
H       -20.51883371344325    9.73691073943991   19.80208184576544
C       -18.57717958307268    8.92193905325932   19.43718708572304
H       -18.94253553418323    7.92346720412209   19.24356842063988
C       -14.75045609548120    7.91278537297324   20.14448010515234
C       -13.81319783024452    8.50003534525565   22.27499166322055
H       -13.88288409525895    9.03955538494444   23.20857060428287
C       -12.70633970021502    7.71131797748295   22.01130448014543
H       -11.90998207562971    7.63988503628057   22.73724917532985
C       -12.62290605246339    7.01130174322449   20.81761613666285
H       -11.76374134675860    6.39060592743499   20.61103180752681
C       -13.63987770175363    7.11125740603697   19.88841117114162
H       -13.58637629039732    6.57084583004147   18.95046327054794
C       -16.87542543648872    6.35280366562948   19.19873515389902
C       -16.88646135438702    5.88966490092069   20.51486611671602
H       -16.38335845726181    6.44766404851958   21.29188627234435
C       -17.53718432629544    4.71265488829274   20.83080069188683
H       -17.53835618386225    4.36152312519529   21.85274883594708
C       -18.17866403843325    3.98186667391065   19.84274585064681
H       -18.67453760518207    3.05545462029903   20.09286716558897
C       -18.18220515440417    4.44427987084226   18.53905833774986
H       -18.67576929470733    3.88317542045574   17.76110837590250
C       -17.53985870674965    5.62677797387327   18.21575783128876
H       -17.57308887581056    5.97958593366256   17.19693397066420

