87
CSD_code = LEHZAC | q = 0 | S = 0 | Stoichiometry = C43H35ClN2O3P2Ru | MND = 6
Ru        5.88533028241960    7.55144377167781   14.18066165592784
Cl        5.85462741916030    9.91886516878539   14.37988700954804
P         3.54541424672499    7.56677330257562   14.26990275420804
P         8.20842934595833    7.57027782922554   14.47506047562919
O         6.02025628785516    7.79070120526983   11.21319297443573
O         5.80074827094078    7.29673390822843   16.26543768584111
O         5.74077427548599    6.48214438037179   18.23222428468701
N         5.89119361210339    5.50053064860864   14.15048916476726
H         5.92626407236413    5.03889857174997   13.24513118614647
N         5.78234295655930    6.28046628814310   17.01667419387973
C         5.96656774256631    7.72443699028524   12.35886136185580
C         5.85583083389403    4.64096008487796   15.14543671998831
C         5.87046617762625    3.24061544623416   14.85590324741901
H         5.90842464740957    2.96075037528781   13.81197017907259
C         5.84038595265538    2.28724015972248   15.82212432364489
H         5.85410366214900    1.24222024935140   15.54974303676557
C         5.79155200315511    2.65107865306937   17.17999370203814
H         5.76809786062074    1.89055645509555   17.94365307471103
C         5.77436274323230    3.97013209694457   17.51245564815794
H         5.73672693321381    4.28327205730035   18.54443744239289
C         5.80458234116800    4.99104428778090   16.53521152940455
C         2.93530580895093    5.90072906046614   14.65764109661833
C         2.99434879756091    4.92003435548591   13.66859015212630
H         3.28825898459879    5.20070075985109   12.66428295666257
C         2.68859345543869    3.60787018955935   13.97322251722737
H         2.72727370808240    2.85152405917979   13.20270360843837
C         2.34411313533953    3.25870405189892   15.27013985042510
H         2.11712132361468    2.23062814874546   15.50930486094092
C         2.30137871577152    4.22514213482169   16.25991711370250
H         2.04488684546732    3.95246462448944   17.27275983783646
C         2.59803581366354    5.54307458320356   15.95836698625184
H         2.57180840507198    6.29685750013143   16.73432298949642
C         2.66543548672165    8.06605210653579   12.75950429771643
C         1.53847860665014    7.41782119772090   12.26548699895572
H         1.15281028361534    6.53763784247116   12.76196782318405
C         0.91137574283139    7.89858366295863   11.12941032092612
H         0.03852755942516    7.39037445635805   10.74539639004430
C         1.39620179318377    9.02626663602892   10.48797483934479
H         0.90249420407791    9.39465242236130    9.60080407295861
C         2.51103827869553    9.68177375848889   10.98575902142533
H         2.88720650065054   10.56422568645975   10.49034789950131
C         3.14510341570801    9.20550349018495   12.11777337845684
H         4.01317751305201    9.71484267038709   12.51892782821361
C         2.70087255245939    8.59303841799190   15.51712651363861
C         1.31252392819262    8.70642215296766   15.46526261309339
H         0.75945006196900    8.20787553487356   14.68114853063241
C         0.64652875550021    9.45742588483713   16.41394489363027
H        -0.42950489830911    9.54479790399642   16.37024141800794
C         1.35605677332989   10.09926792330633   17.41789703115397
H         0.83097595393271   10.68807492986924   18.15578124920457
C         2.73412057012983    9.98672870834717   17.47214306383894
H         3.28901470411325   10.48502555875810   18.25292054386671
C         3.40864119593769    9.23592739954890   16.52464807510247
H         4.48502141047840    9.15571022195580   16.56449505413027
C         9.21585991883203    8.09555542735859   13.05591427722030
C         8.78601393741103    9.24103576283350   12.39002325164491
H         7.88186499975965    9.73883938384217   12.71991078677775
C         9.51345617386288    9.73674528159178   11.32451475281872
H         9.17566204226575   10.62350989689406   10.80954161662772
C        10.67230765756217    9.09477149045313   10.91786923802574
H        11.23903022283470    9.47815716423025   10.08217935461976
C        11.10700780311574    7.96109848130972   11.58415755037908
H        12.01347402955460    7.46318926544730   11.27107400517356
C        10.38606636928501    7.46068799989713   12.65412496433003
H        10.73192841112447    6.57476434117125   13.16935400553564
C         8.93740971713839    8.58115693699337   15.80462192775432
C        10.32608844335809    8.64734047407677   15.90859281239678
H        10.94551630679273    8.11879758078802   15.19695341046715
C        10.90672285873280    9.38784828608004   16.91925919791013
H        11.98320240284344    9.43816653425415   16.99724977650159
C        10.11094256154359   10.06620574137445   17.83051682088606
H        10.56971037732096   10.64587294209248   18.61817456824804
C         8.73257596624459   10.00175809203661   17.72889848171153
H         8.11100957533477   10.52918637890749   18.43689448235796
C         8.14311764409147    9.26180592669785   16.71798153142889
H         7.06706828210972    9.22015767929139   16.63442406738341
C         8.79226146615130    5.90134285797292   14.88994191615135
C         9.02395319986348    5.52540511234328   16.20848882257912
H         8.98181340951100    6.26691529308286   16.99544576592325
C         9.30350008142668    4.20456467443152   16.51366081507817
H         9.47825791360060    3.91791674106167   17.53994842487949
C         9.34744605901284    3.25309690866062   15.50958404586816
H         9.56039171831440    2.22262605488514   15.75135632990769
C         9.10756353964375    3.62025103819199   14.19417631038500
H         9.13611440622958    2.87551517408135   13.41198715799203
C         8.82018719048727    4.93549917366818   13.88500734400963
H         8.60781826154318    5.23041593920051   12.86430670977998

