51
CSD_code = LEJBEH | q = 1 | S = 0 | Stoichiometry = C23H23NNiO2P(1+) | MND = 5
Ni        7.59539038949438    3.89686096560759    3.82255334240981
C         9.12172839188900    5.27254551060706    3.80232886802517
C         9.60713711129514    3.96371994460003    3.72900895190466
C         8.13318663142349    5.48459248797921    4.80169883849607
C         9.42688475482295    6.30502975692211    2.76157859119758
P         5.43301873316533    3.81017000878615    4.05175668887618
C         5.79013641123116    2.22802859323246    3.17063073244984
N         7.12154877738238    2.21300839584448    2.96479495173008
C         7.66947138038346    1.18217919491600    2.32987297002309
C         6.91451082894779    0.10854706654549    1.87769193824444
C         5.54410009886625    0.11266083626020    2.07421571587650
C         4.96603576837097    1.19924269106044    2.72673842913427
C         3.50578701152965    1.34650718521538    2.95756744907686
O         3.03428830802404    2.38873166835714    3.34974941062179
O         2.81845558926196    0.25061032139530    2.69601050543133
C         1.40838939783851    0.31893677090635    2.89675516272714
C         4.65438722733438    4.82797929066392    2.76818605473548
C         3.30976626654581    5.16101220320566    2.68295509381731
C         2.88231247292844    5.96507682711801    1.63944272619003
C         3.78083063693963    6.43172346432774    0.69325073299694
C         5.12623943503600    6.10481422262913    0.78381320184741
C         5.56235440099051    5.31173978011953    1.82590800649733
C         4.35172358858059    3.49285834589756    5.45928272117042
C         4.32214091777438    2.24685306487949    6.07779185018783
C         3.52234592134900    2.05448430268182    7.18840247640212
C         2.76907861699673    3.10286291068747    7.69430081405891
C         2.82652353267095    4.35268426000732    7.09884222023300
C         3.62480170291426    4.55526306943851    5.98773632011995
H        10.26952994484142    3.68514926327412    2.91692239612778
H         9.72256939337944    3.37671092781644    4.64757679501331
H         7.61799777097360    6.44096666078927    4.82937952401847
H         8.27301045086444    5.02039404074513    5.78513540947819
H         8.58169093403989    6.96858642267828    2.59336850993335
H         9.72782291022065    5.85334245480376    1.81934323466058
H        10.25860002669510    6.90975524977780    3.12428166472433
H         8.74063060172338    1.20911570523022    2.17904177435530
H         7.39807239689064   -0.71344118770450    1.37497357711233
H         4.92257499529313   -0.69904777470429    1.72890058214087
H         1.03420627248648   -0.69153765894428    2.75813907783122
H         0.95875101036518    0.99711550910732    2.16975341914424
H         1.18828166068583    0.67964776916190    3.90295097252876
H         2.60999210104103    4.78423787442573    3.41093892189125
H         1.83866177284817    6.23003831844889    1.56526452958978
H         3.43502079460284    7.05780544578208   -0.11473829247676
H         5.82602240525031    6.47520413961511    0.05012752721416
H         6.62343027885801    5.05474198418661    1.92919673981907
H         4.91644172882552    1.43173591102557    5.68591121002001
H         3.48826095077851    1.08565325437779    7.66358829135458
H         2.14400622141412    2.94619443693311    8.55977347436500
H         2.25076817792614    5.17130186137928    7.50287593431161
H         3.68758289601247    5.53160625190255    5.52742996235856

