105
CSD_code = LEJDIO | q = 0 | S = 0 | Stoichiometry = C46H54CuN2PS | MND = 3
Cu        7.24758601890487    4.73938139808808    7.59177005008013
N         8.54797120901159    4.67825817785296    9.01499672845202
N         5.62226735670673    4.92809777667162    8.58254602953135
S        10.26636435553843    7.57854019010730    9.00983876494445
P         7.67820568993970    4.63393111605949    5.43802717081574
C         9.20219011394573    5.11381960731957   11.33715866882635
H        10.20897776546617    4.97653326977139   10.95098008720812
H         9.01500892279653    4.37873163981333   12.11851844131444
H         9.13488699437591    6.10453408992755   11.78367556118251
C         8.17526179002968    4.98959615528918   10.23948226713986
C         6.85368642585958    5.23370224625411   10.61836587180902
H         6.71865303051367    5.47567781958839   11.66349477900344
C         5.67201069037826    5.10828037943374    9.88523520630349
C         4.39857452809091    5.18148969671780   10.69395705549329
H         3.51961957168127    5.10604576807972   10.05830275016208
H         4.36203297447199    6.11772080906666   11.24900883740438
H         4.37740929716686    4.36618470215685   11.41629551982863
C         9.83369817108250    4.21636489220211    8.71497892553983
C        10.70780836122131    5.03681713172246    7.98352925952226
C        11.96783985970573    4.57351164521003    7.64282338591174
H        12.63896747614594    5.22222171942652    7.09834767102900
C        12.36499138035472    3.29834467423422    7.99390693641629
H        13.34860840659344    2.94229413731337    7.72596108488259
C        11.49464286674222    2.48009584914828    8.68985385871365
H        11.81024483580679    1.48125865008315    8.95327169928460
C        10.23469515153890    2.91682798506322    9.06759681117785
C         9.30975733400621    1.99075982060660    9.82527772746934
H         8.42065043693088    2.55210222324066   10.12714824259965
C         9.97481319318067    1.44115409980639   11.08895938261322
H        10.37947487262427    2.25056577097252   11.69202374361146
H        10.78711183144782    0.76265440375200   10.84016069698843
H         9.24764298147402    0.89401939218637   11.68609011057394
C         8.84868811104976    0.84588981054195    8.92070886165901
H         8.29968992652253    1.24138195768597    8.06953095363365
H         8.19404511073908    0.17189792134970    9.47039508930572
H         9.69915923076699    0.27717274150245    8.55097590095566
C        10.28113837745220    6.40807343262685    7.58456443591888
H         9.26038953983314    6.39092727946054    7.19795833358922
H        10.95689725034726    6.82598159293412    6.83854394258565
C         8.55547271621953    8.18246050315125    8.93652130607502
H         8.41918541440374    8.82693449648831    9.79897618091728
H         7.87022069675490    7.34035137044262    8.99082707063256
H         8.40940460520516    8.75345274332528    8.02303220842455
C         4.41179908352106    4.69477812375719    7.90606623589225
C         3.69292919161743    5.76129484525784    7.34434695020470
C         2.51838430135717    5.49271906287943    6.65753290643066
H         1.94647500991618    6.30777533372753    6.23928149782009
C         2.06328131512981    4.19699750612648    6.50330792568886
H         1.14210111127394    4.00554665532888    5.97178811579582
C         2.79341864700444    3.14765594757554    7.02931052008551
H         2.44059548589554    2.13608826189185    6.89250404414805
C         3.96256378282854    3.37536778723739    7.73665682947589
C         4.75473734889771    2.21472505080281    8.29323711691960
H         5.59580523639523    2.61244756338817    8.87049971423794
C         5.32884350120431    1.37769229288164    7.14788567950837
H         5.99565335926231    1.98781313665647    6.53873049123229
H         4.53697858212571    0.99970049522205    6.50494005211416
H         5.88928465712674    0.53155561471293    7.54069332904973
C         3.90552952755352    1.35284721771389    9.22840808401144
H         3.46726370097271    1.96426852831733   10.01437734210537
H         4.52134000176116    0.58432880376440    9.69155298534381
H         3.10034187487416    0.86283470981925    8.68642248045214
C         4.18967875015801    7.18239159528104    7.48111796127653
H         5.19651725448447    7.14652834127319    7.91275583799194
C         3.28919108164812    7.98764837858194    8.42067044824735
H         3.25844447413413    7.53370770368286    9.40746263247246
H         2.27403811178324    8.03055334369990    8.03179399825043
H         3.66354703744578    9.00462910716327    8.52068209909056
C         4.27580474418166    7.87247023851432    6.11778714659626
H         4.84870363621102    7.27075122260537    5.41485534228771
H         4.76350244090987    8.84008698445968    6.21821288353134
H         3.28553349527074    8.03722464950653    5.70045735070186
C         9.31869862159746    3.93373743375639    5.07547989273863
C        10.36051212509702    4.64993224042411    4.49968143832438
H        10.20833831591947    5.67307022935567    4.18645249829150
C        11.59463566834586    4.04875648721348    4.32474053031720
H        12.40005899285918    4.60589589724567    3.86852159170070
C        11.80207233666188    2.74290776868416    4.73354552306595
H        12.76758249670472    2.28024568206476    4.59408309366497
C        10.77362186299893    2.03309750181267    5.33298621211759
H        10.93610806303945    1.01897030005556    5.66606895044126
C         9.54142222112866    2.62818795563970    5.50922282148983
H         8.73163693101986    2.08721728972782    5.98141877485931
C         6.56747301986812    3.65007134263201    4.37148196761352
C         5.21265241612697    3.95178723574474    4.48718002357905
H         4.89989007816642    4.71575253300392    5.18611343314138
C         4.27951297925350    3.27065498463447    3.73117396871998
H         3.23161919077390    3.50927544365325    3.83281338496701
C         4.69241432702020    2.27758101983155    2.85693458476920
H         3.96529081911235    1.73753676160069    2.26859624945452
C         6.03853492860948    1.97420016917910    2.73936322982086
H         6.36073658057010    1.20087015263476    2.05698381616004
C         6.97906525639426    2.65619669631995    3.49197643160667
H         8.02801999428723    2.41281435936406    3.39558925747225
C         7.68494223999019    6.19433837013554    4.49429020346277
C         7.83439879060949    6.20304288351559    3.10989418031052
H         7.94314673676713    5.26817427121806    2.57730940238639
C         7.84408343128845    7.40387080931382    2.42599347836180
H         7.96220205173939    7.40969541372773    1.35224610968325
C         7.70338422533018    8.59987513055455    3.11378051194558
H         7.71492193149791    9.53561043401888    2.57487829311534
C         7.54108604777518    8.59472106930276    4.48860119909067
H         7.42191704777894    9.52597937740146    5.02280394077554
C         7.52622428688959    7.39396801100190    5.17628345508629
H         7.37716436679139    7.37269515671205    6.24755594100359

