67
CSD_code = LEJFAI | q = 0 | S = 0 | Stoichiometry = C22H42N2Zr | MND = 9
Zr        7.19113392307318    3.88382849413041    6.96231774403560
N         6.70925604394912    5.13903301968048    8.72707776283534
N         6.37703649697252    2.96108671256124    8.91575655568258
C         5.03409170397591    2.85892208623617    6.12064283849714
C         4.86783626950615    4.26358893499649    6.02587934512508
C         5.77123884890279    4.74581966477767    5.04187322187555
C         6.49593488405179    3.63103270907784    4.53059635706731
C         6.04016534044763    2.46464912039277    5.20104875287137
C         4.11616292637019    1.92298179076933    6.85456000959263
H         3.27732173283175    1.63817332510999    6.21111584663614
H         3.70784337639194    2.40012407994989    7.74310414882166
H         4.63216706492061    1.01051826050348    7.14869471999437
C         3.80540056736217    5.03673435135609    6.76268237038801
H         3.74238817809311    6.06109763697502    6.40018665364470
H         4.00459073076137    5.05641518677603    7.83830252361051
H         2.82876866176029    4.57241618125947    6.60975145617665
C         5.79470352485892    6.12609203571845    4.43735638958531
H         6.81371395934864    6.47723338527444    4.27231802092238
H         5.28266158069340    6.84789041553595    5.07021214190131
H         5.29026394501423    6.11689699540540    3.46743713399462
C         7.39828775898960    3.66182895952714    3.32575949233610
H         6.84341419779082    3.36929349081717    2.42998676672731
H         8.24122597628201    2.97954691319711    3.43394435590751
H         7.78939630755742    4.66330651221729    3.15898256810241
C         6.34519973201347    1.03406132662931    4.84040978326734
H         6.73074570669035    0.47038026587574    5.69291406060846
H         7.07256890679877    0.98254348657068    4.03307097292909
H         5.43511139139497    0.53583367684550    4.49751690416270
C         6.60985463109036    4.09969646833079    9.55024843283595
C         6.76267993083391    4.17853291792453   11.05817179400073
H         5.81134528678150    4.42125510365718   11.52794915131223
H         7.49120775244377    4.93417072662879   11.33452811274995
H         7.10432470661015    3.22482578385232   11.45399772920436
C         6.84942055284453    6.53782003167493    9.12006213326092
C         8.31705661893816    6.87458974724211    9.44409604429619
H         8.68511298322416    6.29092346384344   10.28478428028034
H         8.41516754177404    7.92972634039386    9.69085757598456
H         8.93763237601033    6.64984737061813    8.57860279000607
C         5.92968790786237    6.97988945086934   10.27643158288494
H         4.96218528368888    6.48932647879995   10.19093077070886
H         5.77299746740537    8.05503269169811   10.21692124832525
H         6.34910689092845    6.76416719796015   11.25339323697108
C         6.42521339844235    7.35207879753521    7.88264294847551
H         6.90209165995269    6.93564215224846    6.99542133364117
H         6.71289368838928    8.39555696568129    7.99525368199729
H         5.34560500393105    7.30051595563643    7.76223936598681
C         6.27402819390316    1.70094648552871    9.62586234986856
H         7.12944782161006    1.53638332009329   10.30358040000891
H         6.31149801938912    0.91029458348435    8.86760357996244
C         4.97567351030954    1.52679781390980   10.42533852138075
H         4.90591389771140    2.24760499494377   11.23470028439346
H         4.94041928927734    0.52609847308039   10.85113211108734
H         4.11464276282017    1.65728023063014    9.77615301181949
C         8.73222629815137    2.27624148298546    7.24572382226199
H         8.20343884966450    1.33659211730367    7.51558868934042
C         9.63015277647706    2.63415529237204    8.44626099209653
H        10.30115996343160    1.80400342685873    8.70933030101223
H         9.04013170087159    2.87548837695864    9.33478616929587
H        10.26196260646241    3.49575608302144    8.21265189367276
C         9.65336442604024    1.92442307063569    6.06594558893861
H        10.28874448394003    2.77119062180507    5.80002348618183
H         9.07988066550802    1.62715650112137    5.18726063133098
H        10.32112577293256    1.08942554038729    6.31970741694922
C         8.83725765268276    5.21741177090002    6.18043508823382
H         9.68671071109729    5.31425508102156    6.87516337870215
H         8.56087310340205    6.24769436200530    5.91064551487738
H         9.25753407634027    4.78327370819536    5.26127565836173

