49
CSD_code = LEJHOA | q = 0 | S = 0 | Stoichiometry = C18H29PZr | MND = 12
Zr        1.30567402474640    5.76499626962725    8.36782350680816
P        -0.41753872640603    4.21994329776504    5.98581661101407
C        -0.89717089820189    6.88090874800358    7.86614777125750
H        -1.79862922758522    6.37236481524946    7.55082464956779
C         0.04463969678430    7.47763744187490    6.99887672957624
H         0.01625499809386    7.44443853534801    5.91658118848276
C         0.92797895089305    8.24645184874026    7.78352437478338
H         1.68570601597478    8.92086501369556    7.40641489647011
C         0.54514941737702    8.11427088051300    9.13182045137936
H         0.96331175279324    8.67396524520138    9.96024921552661
C        -0.58616246389209    7.27488700572937    9.18535687861340
H        -1.19999822937283    7.09276876685523   10.06081292560869
C         1.40669271651902    3.73066364720361    9.91945585408480
H         1.01528709004085    2.75150207009585    9.67147317891925
C         2.74134665291293    4.14805082263326    9.74607911033311
H         3.53841591568419    3.55622396124204    9.31267348224421
C         2.88917281188138    5.40463094742827   10.37014778258651
H         3.82163351514588    5.93695034370160   10.50651615682976
C         1.64933709877144    5.76241659588663   10.92901854567055
H         1.47093196532054    6.60721668302040   11.58260732961729
C         0.72845938863667    4.73295029834572   10.64839029194242
H        -0.26522229830879    4.64441931302211   11.07360157667783
C         3.27744264804794    6.44260978720597    7.52961103100099
H         4.02304667178796    5.63307667531949    7.48425908864328
H         3.71072013951426    7.24164906844696    8.15171266538299
H         3.18765401373204    6.84565777459404    6.50839595449643
C         1.25347546266911    4.26200844402155    6.71914321337328
H         1.90615588496134    4.66618944688059    5.92626499811582
H         1.59228830321378    3.23822684679628    6.95194480413472
C        -1.18913735211728    2.87557312582755    7.07295984193592
H        -0.41008318615394    2.14629130040839    7.33440526914454
C        -1.68768965728956    3.54977881126444    8.35140849164209
H        -0.93019183449617    4.24647616388535    8.73708965277279
H        -1.91485414693917    2.80790197159120    9.11759429177681
H        -2.60166775332616    4.10525093803587    8.14182807759533
C        -2.35426337313018    2.15751305239818    6.39894091956660
H        -3.05983202802895    2.88019039005158    5.99179486116166
H        -2.88181004448562    1.54002532303459    7.12616918598184
H        -2.01937896014695    1.51108934271203    5.59243520532894
C        -0.18132833944720    3.25096278096306    4.36754862641394
H        -1.18169285396250    2.94168099988447    4.04700819968459
C         0.35521994447129    4.23846845690403    3.33389578552030
H        -0.30441278847652    5.10147886105664    3.25619814243853
H         0.42839340988054    3.77043017399668    2.35308773725974
H         1.34623398724773    4.59196619803095    3.61624054974955
C         0.71976768428995    2.02648520902791    4.46130078026485
H         1.73645223324350    2.31798617820846    4.71719118701926
H         0.75001898822778    1.51335102288221    3.50027032705547
H         0.36220277888614    1.32165910542816    5.20878860447465

