67
CSD_code = LEJJES | q = 0 | S = 0 | Stoichiometry = C28H37PZr | MND = 12
Zr        1.91705350901078    9.59038002655664    2.64106876874458
P         1.23097015580571    6.32923029160208    1.95137699982750
C         1.87346669574913    8.36140829976258    4.91719885477806
C         0.55618528134849    8.38106106146881    4.37928709852036
H        -0.06431022873776    7.50761881719964    4.23952165607653
C         0.10859098260686    9.72204322612307    4.39948408313311
H        -0.91135399676679   10.03879965947967    4.20307657239391
C         1.13457224879984   10.55375161166496    4.88796356746429
H         1.03426988446547   11.60009580526529    5.14208712397272
C         2.23016698159612    9.72333957170335    5.24784202101322
C         3.43507961799482    9.97753824921505    5.92988571096711
H         3.68879397068989   10.98780059247835    6.22481367561216
C         4.25812685169422    8.92522834863710    6.24251413822771
H         5.17729963505092    9.10309700303479    6.78160565260407
C         3.92902212673922    7.60475323664854    5.88396091723271
H         4.60937492979866    6.80913378956119    6.15127730156618
C         2.75826097895704    7.31326950003446    5.23005827431941
H         2.48699911294614    6.29159746275368    4.99673694668992
C         1.87792789052136   12.14084204209531    2.03110449456480
C         2.64368717882076   11.48902010913827    1.02502372470372
H         3.66560707557510   11.72281894626561    0.76167522056293
C         1.77496996187866   10.66583553746503    0.29141633669715
H         2.04112593353586   10.15858986771576   -0.62947917952409
C         0.47296499393959   10.73687589747284    0.84127142238261
H        -0.42900022225326   10.38697694121589    0.35567145230050
C         0.50934533750866   11.69378172273473    1.89427871269013
C        -0.50419866720629   12.32843195561705    2.63843464832442
H        -1.54059328230777   12.04570021831127    2.49750240056555
C        -0.16659768326822   13.34661021789208    3.49446928918735
H        -0.93806423190954   13.85858169535110    4.05122251826886
C         1.17049967473651   13.75332007977474    3.65703252852581
H         1.38922236860929   14.55919215685637    4.34278711859793
C         2.18726773984166   13.16421480984975    2.94675663348381
H         3.20721537746856   13.51361234474833    3.04667393615958
C         4.13497428004599    9.78960367183927    2.87332255679386
H         4.54831748147186    9.01395078127791    3.53399622928244
H         4.38663584553942   10.76243162557530    3.32306885297583
H         4.68942374325794    9.71620934024435    1.92405584139592
C         2.36931442714118    7.69663255930872    1.54220184793877
H         2.56714636900766    7.74276345562510    0.45948398171365
H         3.31018461512630    7.40276552021933    2.03580664399731
C         2.13908806292938    4.75554042369845    1.28624077686046
C         3.50048246203946    4.76135696622540    1.99269897795954
H         4.17545920181154    5.49178089798110    1.55246912353515
H         3.96981569779206    3.78172911761417    1.90684177495377
H         3.38497334731787    4.98951641214066    3.05224129886653
C         1.37562295784286    3.52643418945090    1.78328102190388
H         1.17073549115973    3.61998821886138    2.84873478216092
H         1.97177998333418    2.62689522786293    1.62892781824897
H         0.43298051411845    3.39317985319118    1.26323482382780
C         2.37251038289197    4.66851054589584   -0.21756102148471
H         1.44464896548034    4.51107054925401   -0.76113798337482
H         3.02978863871303    3.82584962176657   -0.43501422561119
H         2.85534090812218    5.57046324947100   -0.58951951320509
C        -0.23476196734462    6.69325964663233    0.75766765237749
C        -1.10834099357808    5.45363214068812    0.56696306295483
H        -0.64872505330839    4.74110513812665   -0.11183988231192
H        -2.07115057843983    5.74075377154810    0.14239630611345
H        -1.29241873035894    4.96389009446725    1.52137507312128
C         0.13368744204576    7.27531869322940   -0.60535871648078
H         0.61341110614893    8.24602470379828   -0.49863694612589
H        -0.77350623990656    7.41022890798026   -1.19616122588526
H         0.79343293599889    6.61599886178329   -1.16022422100681
C        -1.07211946691391    7.72890780511279    1.52154743225865
H        -1.52968135135194    7.27055732320043    2.39752711495549
H        -1.87444478673310    8.10837379640106    0.88708199576910
H        -0.44015387464552    8.57072579383218    1.84628812489063

