47
CSD_code = LEJMUJ | q = 0 | S = 0 | Stoichiometry = C20H16N6NiO4 | MND = 6
Ni       11.20614060983882   12.39297785696892   18.47701302863525
N        10.20757515678768   12.40777522994060   20.02552754636888
N        12.24769116104460   12.37297480789210   16.85624709919242
N         8.85360126641764   13.58610245571850   18.66737269238968
N        11.99142055347185   11.21971789138079   20.71311167349445
N        10.86458345052618   10.67948067994112   16.10827310851512
O        12.49247208638611   11.48413179087348   19.53629907493160
O        10.55761032955688   10.43431564918840   17.33313134961652
C         8.18942187313493   13.54614534456443   20.94708277861455
H         8.39055827331891   13.29305572531051   21.97334168746281
C         9.08360504214412   13.14130571472597   19.94657496910180
C        10.73492882243679   11.67914833938034   21.02486341055927
C        12.71416725145651   10.49785861703484   21.57661979142731
H        13.69111167966843   10.20639797685090   21.22298305557250
C        12.02375708395777   11.94666730717232   14.45487863567401
H        12.67205598301750   12.77395262750359   14.21446286494323
C        11.43808142701888   11.20236783410618   13.45438871131138
H        11.65040925343683   11.41999062289869   12.41951720408089
C         7.08558539994226   14.30747265402039   20.63287022150723
H         6.40640959927522   14.61747183887790   21.41116580627879
C         7.77344060809857   14.31031437316800   18.35455332286165
H         7.69587899046345   14.58944697759758   17.31508223775054
C        10.56401603889652   10.17893657000878   13.80016276311859
H        10.08925495958731    9.56792749519020   13.05049023423789
C        12.21474768990318   10.14550533549142   22.80712117044486
H        12.81580576698285    9.56137078922171   23.48306742636143
C        10.18672958858646   11.29139269141720   22.25512733897534
H         9.17080354389431   11.55593352842043   22.49094505763663
C        14.52851473116201   12.76150878130744   16.05288121846721
H        14.46896618226914   11.92210840322431   15.37879720185523
C        14.65478196444429   14.77941537851542   17.87155846444568
H        14.63753076599678   15.55354918145067   18.62361334548929
C        10.29233104739550    9.96153912633004   15.13054305727667
H         9.60610726016447    9.20160429911530   15.47215936136181
C        15.74866960673362   14.53700479464830   17.07427479356925
H        16.63364613740476   15.14193924500017   17.18200907153963
C        10.91990200608978   10.53191391268873   23.13970732731610
H        10.48654399873671   10.23463976656632   24.08149562727715
C        15.68912298584621   13.49674906161344   16.15484395212087
H        16.53929702451248   13.25946043150647   15.53490712269068
C         6.85879437325829   14.67919915656901   19.31113171807001
H         5.99865142619940   15.26457079265050   19.03384482126292
C        13.41204998843589   13.05485843307286   16.84624492969487
C        11.76383794247981   11.67903013837789   15.80500324873103
O        12.53777877948914   14.33876313586808   18.55688120863720
O         9.71853773092897   13.30476562845309   17.73002223672788
N        13.52077255919895   14.07014160817634   17.77200703241526

