46
CSD_code = LEJQAV | q = 0 | S = 0 | Stoichiometry = C20H12Br2N4O7Zn | MND = 5
Br        7.25254537230176    3.44382188760074    0.63325267782570
Br       14.53615187149338    2.08592927467077   13.08647221876271
Zn       10.03254731811634    2.05383536246287    7.18749423408228
O        12.25409416947571    2.43907699060281    2.01810925268249
O        12.22862997390586    1.04381855427155    3.65026448296272
O        13.15320527298922    4.38009848965911    7.40428888690112
O        15.14780771276044    4.17064794393510    8.17649867937868
O        10.30367099738713    4.18058463358483    6.79400944891653
H        10.08700539932593    4.92453228626863    7.36453736712451
H        11.27468669749900    4.20669541133645    6.69693450796532
O        10.40177596510688    1.62991929801169    5.41425090026081
O        11.77783098264500    2.21973822137615    7.79795338864661
N         8.09210786960989    1.78941478827403    6.84260703464348
N         9.46278739690713    1.49823878545176    9.08936228101854
N        11.70109854206969    1.85462829788893    2.92927054837903
N        13.96913247866672    3.90006968846460    8.17596211506857
C         9.71019178228387    1.99024440065180    4.42355096006181
C        10.30141832391140    2.14570946093430    3.12333309256164
C         9.59045261870661    2.58903982026091    2.03114150555593
H        10.10210407581299    2.71101974675853    1.08663956077663
C         8.23145898526769    2.86035123446808    2.15274810601843
C         7.59421412916631    2.69567293482863    3.35850546697837
H         6.53515571651269    2.89610322661704    3.43663239779495
C         8.29681456264233    2.27743752350661    4.49863804789525
C         7.56449806050388    2.10048689341424    5.70037639140992
H         6.48339977879320    2.22521280450560    5.60967485533186
C         7.36078262092034    1.44907593331140    7.96518325065097
C         5.98197471671391    1.22448763348404    7.97385999733828
H         5.40832213857159    1.33595159436120    7.06752070668210
C         5.33348011467087    0.83412815133511    9.12681282889368
H         4.26834513874491    0.66292342780847    9.11179674434481
C         6.05140697835181    0.65528996328409   10.30004953010152
H         5.54612168219253    0.35161401395327   11.20365257908728
C         7.41577737653850    0.85876657514650   10.31422823145684
H         7.94643702505850    0.71049520995124   11.24126466803221
C         8.09855372592964    1.25103238785947    9.16027449700213
C        10.26286304463523    1.33510537761328   10.09451484121836
H         9.89160782472760    0.93106617489208   11.03770605431692
C        11.62760463282951    1.73713383023394   10.12073785081895
C        12.33728492959594    1.66872425359684   11.32502331820793
H        11.87976004138452    1.20014493431637   12.18449565091036
C        13.59744227413543    2.21799301992385   11.43955739348350
C        14.15665546390493    2.93768682106195   10.39058180679567
H        15.09709538851104    3.45802596706259   10.50365874370286
C        13.47541430349177    3.02517549236919    9.19353949542101
C        12.24938452523171    2.31605127862894    8.96023340252839

