82
CSD_code = LEJSEZ | q = 0 | S = 0 | Stoichiometry = C29H48O2Si2Zr | MND = 12
C         1.38639521093984    3.53742535962517    5.71734515967408
C         0.35753280078240    3.30625955923872    4.75952665596156
C         0.93525744291403    3.39593041388667    3.45640798438758
C         2.31536118490837    3.68510173518673    3.61217036096725
C         2.59156177334286    3.80125959654909    5.00228391458282
C         3.99397759123859    3.85403958066107    5.54776627641437
H         4.00275363145238    3.89714775203205    6.63348868696644
H         4.54517435859664    4.71066997998440    5.15183921577181
H         4.53688569494329    2.95354096840418    5.24883504007616
C        -1.13686847523645    5.79642949168983    3.83227968721009
C        -2.03013045440072    6.09694812901225    5.00173725350930
C        -1.55912365007856    7.40990489905106    5.67563419294008
H        -1.85976139734399    8.26069911598568    5.06096526327326
H        -2.03502897920816    7.50845932912609    6.65585352805207
C        -0.06339179854605    7.38335330462903    5.79984876850692
C         0.85196992895533    8.03203512043726    4.92826253755940
C         2.16496991841498    7.65556698779747    5.32513315496863
C         2.05515485539285    6.79641579687393    6.46003102127058
C         0.67313426997857    6.61855132682769    6.74292847839204
C         0.06945538361018    6.06478216247390    8.00729276751611
H         0.81744827935759    5.57667372404236    8.62519559062682
H        -0.73528001742868    5.35654681846461    7.80653626299823
H        -0.35617807236777    6.88286046883869    8.59347618942790
C        -4.27042469272030    4.54143036648361    3.50957088455629
H        -5.26572126514858    4.58244300540723    3.07895731716904
H        -4.24347052036170    3.68966862056388    4.18289388337612
H        -3.57058300177049    4.35449243315144    2.70071137421514
C        -5.00367652643334    6.41134653522245    5.90059973331413
H        -4.80775047794550    7.34484277024584    6.41819801705489
H        -4.89714758057539    5.60663083695306    6.62127798654022
H        -6.04080053572045    6.42759783719486    5.58352656496807
C        -4.03632109768018    7.63964803648978    3.18826089537038
H        -4.00047504342182    8.59831338207926    3.69710206662963
H        -4.98186364659824    7.58913840594833    2.65755440710230
H        -3.24329894502341    7.62544433836871    2.44681130564699
C         1.85562362367604    5.70511465927133   -0.20209028372807
H         0.77495141129403    5.62971684065448   -0.25445077685186
H         2.26270896620142    4.69933500703502   -0.16300603804538
H         2.19481689239975    6.14998990593233   -1.13244966969552
C         1.81798411277142    8.57017138429756    0.75425998525233
H         2.19703135452637    9.35322266571337    1.40388042090141
H         0.73624586325143    8.64645484184495    0.73048221520123
H         2.17739681994098    8.78412253480014   -0.24733096003301
C         4.30972446322410    6.86339255707011    1.28779582953421
H         4.71580455926876    6.83032675459547    2.29485001337813
H         4.67189826620866    7.77347281755686    0.82278923776149
H         4.73521455155037    6.03322246351879    0.73409500200409
C        -1.07491209904681    6.11399726971155    2.60949369724732
C         1.31498163696448    3.12595007982623    7.16398162798730
H         2.01871942733321    3.67800653122158    7.78208414482327
H         1.56823299673885    2.06556231807698    7.24837160741046
H         0.31711857362504    3.25573399750333    7.57556970082678
C        -1.01719049325767    2.76227182879761    5.05019687485680
H        -1.76011899146336    3.18181498005304    4.37187430041381
H        -1.32144113232100    2.97365755637730    6.07435736933480
H        -1.02022788922143    1.67641239945122    4.92488893057221
C         3.44849291177796    8.21458373325504    4.77299576287106
H         4.27108081371141    7.50899910758097    4.89837349319306
H         3.72076166530090    9.13788845330988    5.29199216534110
H         3.34635324221738    8.43293358649738    3.71105684129696
C         0.46867667231385    9.03076269610599    3.87083221717769
H        -0.25725482134024    9.74078027358829    4.27179617168611
H         0.02890707573087    8.54134381955378    2.99856450331909
H         1.34058174344893    9.59308362455583    3.54707511683662
C         0.24096557804012    3.12437582817543    2.14929744916797
H        -0.83092656128470    3.00401690105140    2.29757686051756
H         0.62513184064653    2.20684431611222    1.69731961458894
H         0.40240471790877    3.94444944897611    1.44773819939967
C         3.18801828419880    6.52181403587928    7.41334096357940
H         4.13721633536209    6.41379355783552    6.89283666883895
H         3.01558727157601    5.62963980713470    8.01159402120196
H         3.28865409815015    7.36288580754391    8.10510121158856
C         3.37575262983071    3.63261346546019    2.55200942903207
H         4.03749967096047    4.49521932070929    2.60578756849315
H         2.92902061984161    3.60354999984927    1.56351809433164
H         3.98180318852030    2.73122067321173    2.68146081370854
O         1.85174406076598    6.33685391200808    2.70776293209834
O        -0.90009323372360    6.24477092999088    1.43222181003356
Si       -3.84806070038662    6.17785442790170    4.39563696230476
Si        2.38098095710855    6.81098665101489    1.27324893199482
Zr        1.03160599673324    5.67796146888611    4.34315095782780
H        -1.92410311788156    5.29602657152228    5.74786558338814

