61
CSD_code = LEJYAD | q = 0 | S = 0 | Stoichiometry = C27H28IN2OPPt | MND = 6
Pt        3.20326353516863    5.24952862739195    2.43956700192742
P         4.51589298615159    3.62088378168346    1.11034893803637
I         5.38795015224795    6.85561112836917    2.54538196032673
N        -0.15629904117578    3.52622941914137    0.58189181943525
N         2.53512369597519    5.97182495657449    0.46470385219227
O        -0.69478983349351    3.58198364323776   -0.55847107429668
C         1.52812772770569    4.14138226675276    2.18878775330719
C         1.00554916585271    3.21841358254119    3.08115694180770
H         1.44250048961644    3.06851614077790    4.05424245215939
C        -0.10601319756821    2.47472055161024    2.71675063174614
H        -0.54152972466656    1.75786906287526    3.39504309689490
C        -0.64901865446826    2.63813433794027    1.46980976369861
H        -1.49351050351147    2.07271627147957    1.10792227733764
C         0.90854979873537    4.31339507444480    0.94042952891191
C         1.42191366086758    5.34434204172346    0.03806712851390
C         0.82882618933987    5.72282344999831   -1.17010905548908
H        -0.06105066055432    5.21605466249111   -1.50233846913937
C         1.39136983243936    6.73409566186824   -1.92515254209301
H         0.93406880048630    7.02807545684678   -2.85781001644057
C         2.53974488558765    7.36030703101849   -1.46891798226202
H         3.01532276741107    8.15390879544020   -2.02219761518646
C         3.06871938600653    6.94326180009833   -0.26108749430373
H         3.95704152527646    7.41680654079706    0.13590225164882
C         2.05037900124836    6.68228155321610    3.40884751173019
H         1.89957114364820    7.50370588258433    2.70166021291074
H         2.57470317836963    7.07548735854441    4.28068042527090
H         1.07366969935839    6.31634188644717    3.72847904168838
C         3.63086873654383    4.44018231110936    4.31142993719154
H         2.79943529467201    4.55544917259706    5.00847857598179
H         4.49982259900942    4.92434550834177    4.75958486395971
H         3.85335549280659    3.37396750914914    4.20040163984177
C         5.61893262964746    4.32219715853156   -0.21127354417770
H         5.02500273870702    5.00897765094751   -0.82298516431397
H         6.38249805473389    4.90106029965723    0.31754845260183
C         5.70084603353840    2.46832362817813    1.87311054619762
C         6.48768966098705    2.94666980719649    2.91603815854866
H         6.34227983241078    3.95246135610446    3.28239960552209
C         7.46119376494718    2.14243114426664    3.47932126758680
H         8.06853985784448    2.52170855083054    4.28736525337060
C         7.65506535726515    0.85603269254349    3.00491661120782
H         8.41339242259974    0.22525693055390    3.44454179708404
C         6.87920330055469    0.37937520355884    1.96071587711243
H         7.03616289437997   -0.62030546706010    1.58241736216729
C         5.90827083509941    1.18077831508303    1.38925152598558
H         5.31387702065648    0.80503501971977    0.56870995218224
C         3.36812868095139    2.53811083091907    0.21068812401371
C         2.91024675154188    2.83957145656587   -1.06814675284926
H         3.32347004173731    3.67680217485425   -1.61442761002680
C         1.91618636754127    2.07388163847254   -1.65200138653907
H         1.56384572069995    2.31790040972313   -2.64261367444308
C         1.36073375973425    1.01068422625518   -0.96173019543909
H         0.57883071904257    0.42274725003454   -1.41702673501880
C         1.79485582501690    0.71785067678833    0.32190541980999
H         1.35402489702824   -0.10206499958673    0.87007498200602
C         2.78474884895623    1.48152788000549    0.90897097300196
H         3.11399227587867    1.26741235979746    1.91793842841973
C         6.24633414747831    3.25041878422165   -1.03248970962188
H         5.62058094513984    2.79210007495943   -1.78745290485857
C         7.48898249877185    2.83626301989721   -0.85909745038282
H         8.13268178753166    3.27347564952779   -0.11365404738596
H         7.91564420049084    2.05257081037137   -1.46079851905864

