138
CSD_code = LEKCIP | q = 0 | S = 0 | Stoichiometry = C71H58MoN2O3Si3 | MND = 6
Mo        1.88267805176757    9.73787179812166   12.17992912796718
Si        0.01248389403738   11.04705025235667   14.77760230306555
Si        0.22368976681662    6.74333825637251   11.54678442378805
Si        4.33234515562074    9.57025628783195    9.74729341542840
O         0.68260965723144   10.36874022257666   13.49629137097858
O         0.92491602878922    8.15392801642834   11.82526953646947
O         3.02646377887741    9.61273968595950   10.66420028646408
N         2.63856423875184   11.70626797196713   12.20650524349495
N         0.68335593066571   10.75721681150758   10.77814616140396
C         3.12503469211874    9.03384226257035   13.40440265571493
C         4.01170814014575    8.67791317368688   14.40656054791907
C         3.97853130983745    9.34178843402544   15.65488651149915
H         3.24632673140364   10.12501628987733   15.79903761590005
C         4.83167927629420    8.97756303121614   16.67059144211177
H         4.78038985929977    9.49253845935541   17.61995729094041
C         5.75330147576052    7.95479016409804   16.48845363711187
H         6.42086380150947    7.67432016410455   17.28940150400895
C         5.80558600261419    7.29382760242393   15.26848873242023
H         6.52101172500608    6.49684544647334   15.11960262852211
C         4.95516666530434    7.63894219996147   14.24264458196744
H         4.99270594271706    7.12061556479477   13.29535997012111
C         3.51298574524702   12.22018415952661   13.07413129615898
H         3.72788601509216   11.60383324462555   13.93750911688308
C         4.13267504503794   13.43632376052006   12.90328591153452
H         4.82957685311530   13.79994634069722   13.63871593111969
C         3.87057345045898   14.16063974847819   11.73611537757196
H         4.37889969628331   15.09224236927744   11.54282717342229
C         2.94785855209380   13.66715212873271   10.84826399962376
H         2.71720626109438   14.21439515050410    9.94867746040556
C         2.30591276745630   12.44494982294943   11.10939992187839
C         1.22582049445409   11.91656658290361   10.31482165843271
C         0.68994608036071   12.55857889640737    9.18562850711533
H         1.13731511904837   13.46725918892052    8.81736945645089
C        -0.40233304314074   12.02271055899940    8.54711561311031
H        -0.82314617958627   12.50281322803606    7.67721980794406
C        -0.96092194323474   10.84062594864791    9.04957992692982
H        -1.81844225282809   10.38591327637960    8.58118079566469
C        -0.38544829279444   10.25959755100124   10.15593570234696
H        -0.78413250552180    9.34203062298469   10.57201508569188
C         0.89772521933716   12.73010925578285   14.96877721523543
C         1.81645859726194   12.99952202285631   15.97709431546529
H         1.99637155919597   12.25611497020403   16.74053886020899
C         2.49846937484416   14.20317910458382   16.02306379302247
H         3.20480541684250   14.39387517784312   16.81867752816487
C         2.27690266755164   15.16350288025135   15.05128417435359
H         2.80749832955994   16.10419840856151   15.08462298080379
C         1.36614965848937   14.91434027428380   14.03827177053268
H         1.18604358307501   15.66134512798061   13.27760827295282
C         0.68653002458474   13.71071358106534   14.00260049180415
H        -0.03088932617214   13.52696407022419   13.21374409508533
C         0.27457759981961    9.88263243077561   16.25047507602861
C         0.13574036788183   10.26562629009998   17.58012807371223
H        -0.16280670874038   11.27879496124170   17.81306048082489
C         0.38154604235804    9.37135734410657   18.60746613394427
H         0.27260398968204    9.68661460320614   19.63593868506285
C         0.77155725209841    8.07438371741836   18.31863799605693
H         0.96955809456249    7.37828451247750   19.12110907004703
C         0.90694605562668    7.67382040781150   16.99934448125788
H         1.20982131359985    6.66294969588441   16.76751510042497
C         0.65719619593473    8.57074877068881   15.97769263570182
H         0.76800893025434    8.26708094489967   14.94262809764091
C        -1.83437291282084   11.36083186800191   14.43949621351686
C        -2.77476841388432   11.44378196624783   15.46104603384666
H        -2.45299251668397   11.31741105987111   16.48440889057731
C        -4.11162868749943   11.67188716073337   15.18575602771581
H        -4.82767175315702   11.72966502234987   15.99337312327065
C        -4.53495530469011   11.81973555743240   13.87532181164579
H        -5.57918465945459   11.99292069586264   13.65828265991484
C        -3.61367394343447   11.73957222096058   12.84463360912017
H        -3.93760677728022   11.85038464121732   11.81904990753144
C        -2.27943056306350   11.51492314495970   13.12974457605773
H        -1.56296966599165   11.44597078964582   12.32152441390517
C         1.27725449303027    5.32549937612828   12.25624346897842
C         2.10526003585072    5.57886033695588   13.34787210632090
H         2.14156663955533    6.58137721615948   13.75109464349779
C         2.88567143035157    4.57930366975876   13.89992839513585
H         3.52941489276002    4.80100267851523   14.73946890066375
C         2.84477811115720    3.29890225556431   13.37194946613162
H         3.45228495929110    2.51417205389319   13.80024407852123
C         2.02668528159728    3.02928994948856   12.28693004244766
H         1.99643912478445    2.03283796981700   11.86861594840847
C         1.25355894330903    4.03587515698369   11.73509200923860
H         0.62733031731750    3.82210333408577   10.88031557665534
C        -1.46156209451472    6.76563237042849   12.42913063814841
C        -1.85805891854613    7.91319423282430   13.11142965737506
H        -1.19670142883797    8.77194260794360   13.12196134316173
C        -3.06536084503920    7.96548566137421   13.78442583712065
H        -3.35136388617626    8.86526554663036   14.30948953232549
C        -3.90293743259160    6.86277421316948   13.78364708527849
H        -4.84895461597624    6.89975157319850   14.30463524937124
C        -3.51945788746939    5.70789726018855   13.12152339006901
H        -4.16596463284287    4.84151459231984   13.12913456545685
C        -2.30769742083404    5.66177621462230   12.45637772183043
H        -2.00536580064535    4.75118811490957   11.95931869589653
C         0.08011293698705    6.56776740953249    9.65538759388146
C        -0.89960487335623    5.81145469028653    9.02139354651298
H        -1.64601602849783    5.30559044451948    9.61645542520022
C        -0.93894482653436    5.70508747247469    7.64207220634335
H        -1.70880077395040    5.11269451731950    7.16735212387460
C         0.00813939528252    6.35582747560894    6.86906244880840
H        -0.01925803430757    6.27007187547935    5.79203410127953
C         0.99011627749727    7.11679057441801    7.48211095955034
H         1.73331390328628    7.62809347972474    6.88633101725852
C         1.02082805422495    7.22032075627998    8.86084393101657
H         1.78798352823069    7.81650050979317    9.34095306878112
C         3.92617121202565   10.07980627113576    7.96050419484045
C         2.60707738962283   10.23858034014050    7.54941876962325
H         1.81345054082439   10.04910081523174    8.25735312364407
C         2.29441904216698   10.61898343278428    6.25667107891887
H         1.25994326787671   10.73221388920759    5.96295108282502
C         3.30698544077787   10.84702160668207    5.34071837803732
H         3.06968738482804   11.14378753251322    4.32909034572231
C         4.62756944756613   10.68776310474150    5.72783704899206
H         5.42231677377023   10.86026203389708    5.01578587978856
C         4.92906662048746   10.30788972498876    7.02326902953643
H         5.96171260383061   10.18699765452562    7.31675463160801
C         5.54515781263764   10.82317414169770   10.52239794521394
C         5.92355168771252   12.00854240402873    9.90201687513068
H         5.55860357009469   12.22619075877828    8.90766470585241
C         6.76217897052089   12.91099632749084   10.53334039753601
H         7.05079999964078   13.82323366660003   10.02972996019417
C         7.23491578222609   12.64443008481811   11.80669739877438
H         7.89382212564417   13.34591370833806   12.29839446466434
C         6.86004244577054   11.47377212634756   12.44477564844472
H         7.22168626671037   11.25847946279344   13.44014383652367
C         6.02372015828789   10.57572221360120   11.80667120358895
H         5.73643968846949    9.66121564932415   12.30510851892671
C         5.01128705270067    7.79570549373653    9.82412240613680
C         6.15209824786826    7.37538537721634    9.14824036650574
H         6.69938211682777    8.08186025340114    8.54095112227234
C         6.59664827551490    6.06890192292534    9.24462351063325
H         7.48601760325956    5.76001177100411    8.71340465495985
C         5.90220121966271    5.15603528796584   10.02114270383231
H         6.24738195350526    4.13469404509586   10.09523889593652
C         4.76523664347803    5.55684297286065   10.70319854143451
H         4.21917164272668    4.85155648318913   11.31231962354313
C         4.32788374385587    6.86563572356893   10.60518021142285
H         3.44348141815130    7.18583077497487   11.14754034540474

