144
CSD_code = LEKFUE | q = 0 | S = 0 | Stoichiometry = C73H62MoN2O3Si3 | MND = 6
Mo        3.91663099633915    9.82337255978401    4.13391468975544
Si        6.32524919519709    9.96979985598334    1.64895521801612
Si        2.07181499508792    8.48969414174698    6.74993441624383
Si        2.19063580717492   12.77013430648603    3.46612055913940
O         5.03810987690944    9.93586142997456    2.58812632485474
O         2.73505748420777    9.18557826392390    5.47805528044318
O         2.92066716016032   11.37814074475900    3.75832734562893
N         2.72489628161239    8.75192713576328    2.76007700851947
N         4.70079162427490    7.87284606741169    4.19792250935655
C         1.65358857880972    9.21924120671949    2.12060071327085
H         1.22813251947434   10.13112978281286    2.52238886745604
C         1.10654292657734    8.61732708323642    1.01256795895584
H         0.24539303469859    9.05252184877980    0.53086263740505
C         1.69220453073316    7.44437800855983    0.50747752715925
C         2.78925337048861    6.94554186498820    1.17885136051347
H         3.26822478670508    6.04900988123371    0.81874730571019
C         3.29346589379627    7.60224589102983    2.31122381551014
C         4.37237714371323    7.09807627998040    3.12827957795391
C         5.00165037877326    5.86208917486450    2.91703010934717
H         4.76120015454766    5.28183796081566    2.04023882993499
C         5.92075656703134    5.37700743951342    3.82060002173800
C         6.17978573059508    6.15918038921581    4.95775691648687
H         6.87299948863143    5.81699371053299    5.70788394757537
C         5.57014724251896    7.38236563263219    5.08510865548997
H         5.78682867715908    8.02663962820975    5.92739077038656
C         1.12917416869624    6.76038961730414   -0.69575489201593
H         1.89458718774898    6.18109229116877   -1.20700685980293
H         0.70682737365034    7.48607129040861   -1.38741715301678
H         0.32994740584993    6.08042558823565   -0.39672835310305
C         6.60670342925980    4.06553457177356    3.63357907510322
H         6.31836349903305    3.38078344254852    4.43023682080903
H         7.68510351839543    4.20059076964965    3.68622381699863
H         6.35154537189032    3.61912331226144    2.67638937723208
C         5.16025148641979   10.57360717205827    5.32374153239936
C         6.06024805384443   10.96051924432726    6.30378719948849
C         6.03647452815155   10.34165106069573    7.57507080152966
H         5.30050134943098    9.56916704266628    7.75489441136657
C         6.90529416765792   10.73332600988184    8.56715043977149
H         6.86212803627596   10.25173407066751    9.53442638515400
C         7.83134176603676   11.74282586458472    8.33886908900786
H         8.51019966198904   12.04633000838097    9.12185802635123
C         7.87318225950178   12.36102996556672    7.09625917552886
H         8.59168459369434   13.14791059035735    6.91197199737361
C         7.00920330702013   11.98538207117092    6.09259278006931
H         7.03891288827860   12.46995198952609    5.12735428604329
C         5.88956420966200    9.47076109706063   -0.13484001337291
C         6.87628163967408    9.25889365683063   -1.09290661988570
H         7.91338275313323    9.38498272045601   -0.81793796383040
C         6.55362821329683    8.88996747849878   -2.38641594714519
H         7.33616441509102    8.72970293862169   -3.11477271330238
C         5.22708771558076    8.72731655136716   -2.75109749060871
H         4.97305911993010    8.44043590840421   -3.76167113333210
C         4.23029776004441    8.94069501375517   -1.81463582163376
H         3.19158582865694    8.82731620167264   -2.09212424793494
C         4.56424994202106    9.30842231299432   -0.52350323224417
H         3.78333637830652    9.48673169377694    0.20101073091979
C         7.54837594358157    8.70658652164912    2.39181228791491
C         7.93985310142617    7.54217231331830    1.74082560931357
H         7.57181799144169    7.34307945345878    0.74387296468114
C         8.79711307661441    6.63795208309735    2.34368608187296
H         9.09901726390068    5.74523532754037    1.81301568846025
C         9.27200567770131    6.87947933719576    3.62132100862770
H         9.94664559331066    6.17787167548568    4.09210389048197
C         8.88154121819529    8.02708694661239    4.29114937666408
H         9.24503742415836    8.22181988608282    5.29003658566174
C         8.02959515865417    8.92893006942278    3.67956526940737
H         7.73070765486558    9.82644415773965    4.20188528021990
C         7.01960413324672   11.73924211922812    1.70981154718610
C         6.33506818209658   12.68464242711673    2.47123721643021
H         5.44457710871557   12.37731279119152    3.01096741211556
C         6.78002575665406   13.99189843423154    2.55503178288777
H         6.23280759341760   14.70905619860267    3.14922094342894
C         7.92616259546920   14.37555184724042    1.87844450520512
H         8.27751185610483   15.39561265368159    1.94125829101867
C         8.62248868953773   13.44710540932779    1.12235698933112
H         9.51947522596201   13.74259924654010    0.59620830764630
C         8.17007313535636   12.14233606637224    1.04003231685462
H         8.71952947805945   11.42344603738110    0.44934572932592
C         2.30385219563264    9.64764540648566    8.23311953061592
C         2.67626458939895   10.96513878860947    7.97379708280507
H         2.80508058861869   11.27460276138842    6.94253416318639
C         2.89440848508123   11.86019773568759    9.00442376532075
H         3.18962601779167   12.87568649537125    8.78322595707731
C         2.73728445348373   11.45191124657373   10.31887888316722
H         2.90920432850957   12.14695443167506   11.12833232575822
C         2.36001600787757   10.14818148711080   10.59422176691596
H         2.23595084626383    9.82659184042952   11.61906857437257
C         2.14625710873740    9.25589036670941    9.55810177362693
H         1.85888690792331    8.23704194329175    9.78039980188442
C         2.97449920220420    6.81592177850046    6.95019148774686
C         3.90488300972585    6.57013884690368    7.95384498970976
H         4.08847646665533    7.32904273524856    8.70098869833041
C         4.59254981854824    5.37058434006248    8.01674788485725
H         5.30696496876178    5.19795456838458    8.80930940684203
C         4.36552655936857    4.39069612889218    7.06598681399072
H         4.89832206674973    3.45148697865715    7.11585539125068
C         3.44579898520093    4.61722553138512    6.05584505318174
H         3.26116064091433    3.85531823033419    5.31099858368082
C         2.76018515948298    5.81697621998319    6.00409241883701
H         2.03531390592455    5.98262895896509    5.21816440711017
C         0.23007491408091    8.14527314899332    6.40890545728556
C        -0.71104397332001    8.04642429442273    7.42831808206439
H        -0.39335785692542    8.17598393698550    8.45256469803351
C        -2.04390091999888    7.79884438732330    7.15033068834939
H        -2.76047639762415    7.72865459043992    7.95656478019249
C        -2.46285412206718    7.64762069026578    5.83895046732711
H        -3.50414257492872    7.45956238910153    5.61978441737823
C        -1.54096556752356    7.74360690691693    4.81022865670904
H        -1.86165393549093    7.63060469339162    3.78375751087758
C        -0.21067759126708    7.98706586471519    5.09827792547193
H         0.50623517804068    8.06779963373755    4.29178075734219
C         2.00111384942234   12.90523376206753    1.57499443584845
C         2.96126159197503   12.29165698370243    0.77273579919296
H         3.76916866500472   11.74702809104318    1.24702159507503
C         2.89760200412312   12.36831930456318   -0.60669783889230
H         3.65662137033139   11.88892875596221   -1.20897019408535
C         1.86216551668692   13.06125305928730   -1.21226787879987
H         1.80880349007281   13.12561112942604   -2.28990040993796
C         0.89518610525188   13.67191007628974   -0.43125967655153
H         0.08393381800720   14.21126535626551   -0.90025100616196
C         0.96797363917506   13.59365696260630    0.94864046537206
H         0.20673729804401   14.06838059430881    1.55063879264432
C         3.24104636554866   14.21738538263704    4.11799002310989
C         3.19860725871982   15.49220490522661    3.56307135566855
H         2.55420843605208   15.67940199062603    2.71545328893385
C         3.97563814059141   16.51783165280670    4.07288315424519
H         3.93077105281660   17.50258792592433    3.62882979453923
C         4.81645481490825   16.28206475482136    5.14830656674924
H         5.42726630095482   17.08164430443309    5.54328957285143
C         4.87584842723922   15.01656131803575    5.70967056568144
H         5.53728127243022   14.82114418068596    6.54192774800108
C         4.09127851200235   13.99805354262710    5.19996254467417
H         4.14095516187752   13.00651137321883    5.62854703819424
C         0.52561955883401   12.73966432738200    4.38527396292718
C        -0.33705048519872   13.83061780438238    4.41084444769473
H        -0.05999727304522   14.73607365152449    3.89004953929908
C        -1.53287565467123   13.77811623591411    5.10388720185333
H        -2.19281938846519   14.63437012585183    5.11021420312546
C        -1.88281031185426   12.63006151336718    5.79582532083984
H        -2.81624311470963   12.58840824940260    6.33884600205513
C        -1.02805547662029   11.54054110120324    5.79799168481160
H        -1.28810107593069   10.64626097359132    6.34565603234133
C         0.16295156428118   11.59890498762873    5.09705685012502
H         0.83825876869059   10.75121542798272    5.10781186206937

