136
CSD_code = LEKGUF | q = 0 | S = 0 | Stoichiometry = C69H56MoN4O3Si3 | MND = 6
Mo        2.87658592177995    4.55262526822518    9.51833480181884
Si        3.86925035386947    6.93225133300338   11.78581089695254
Si       -0.31441792497343    3.89816952068107   10.75189389897932
Si        2.82430092148772    2.43463995700874    6.79990059002145
O         3.23140702555957    5.97888193266619   10.66328545730988
O         1.12668656998079    4.23516764953307   10.14307924020416
O         2.68811071915395    3.45952302017682    8.02372736265460
N         4.60372043718462    5.27602133612152    8.56046020736806
N         5.45961517581847    7.32375104502377    7.66370441254852
N         2.86080635963739    8.20601050802193    7.39230622055248
N         2.13078210084845    6.12406271572072    8.31803402616346
C         5.83891991312439    4.77510365234291    8.52611292840991
H         5.94873582241002    3.76158000334872    8.89488212593421
C         6.91878593823695    5.49910891736716    8.07179754560581
H         7.90765583645363    5.07688335900492    8.04858716042972
C         6.66657638382032    6.82542701497995    7.68487887291162
H         7.46175491885225    7.48927941754375    7.37463607813122
C         4.44969937121432    6.54934603902075    8.06630048139401
C         3.10263780993442    7.00865735096959    7.93365902296401
C         1.61584611791802    8.56135520213792    7.21675727243916
H         1.45499176978581    9.53829489920223    6.78164329497906
C         0.54327259086276    7.72042429571060    7.56552385805885
H        -0.48217042485608    8.01156268229692    7.41430022555165
C         0.86851727327663    6.49974239415159    8.11456895062435
H         0.10762578649860    5.78540255844962    8.41057992807745
C         3.77647244620151    3.24003314247175   10.53524678835085
C         4.50685383136913    2.19054938498401   11.06233870742497
C         5.17266369836361    1.29812739723303   10.18873317360229
H         5.09058173200920    1.47099308456087    9.12405497738213
C         5.87208946531462    0.22140178971359   10.68055253369717
H         6.36235788554113   -0.45381179237855    9.99324668994137
C         5.95331762000452   -0.00611980440304   12.04851030538301
H         6.50623831824280   -0.85212287769323   12.42774333816617
C         5.31537115506006    0.86288422898191   12.92288491027737
H         5.37676034864327    0.69353026373331   13.98888589271031
C         4.60141380841579    1.94072626523900   12.44997404230274
H         4.10517326093173    2.61445304648917   13.13429535003364
C         5.74562783749136    6.69345576092860   11.54194476973249
C         6.29391426849847    5.43216810389287   11.76411774653908
H         5.66280483701693    4.64755797125309   12.15579680113136
C         7.62625887952743    5.17353071178137   11.49661433276060
H         8.03010774687722    4.18753818077804   11.67766476012768
C         8.43926760105738    6.17800417745165   10.99803262299791
H         9.48209634567240    5.98218466695018   10.79276653239527
C         7.90904128709616    7.43513641898597   10.76356417532128
H         8.53729949851015    8.22262513521014   10.37203770381875
C         6.57386325672704    7.68667023778693   11.02993575131349
H         6.16787468217990    8.66888278817014   10.83464738542791
C         3.38267608641679    8.75169720776991   11.54762975697760
C         4.03887191249825    9.76410587987814   12.24146734988870
H         4.84652087907917    9.50500435549921   12.91113901984572
C         3.67937143015602   11.09025576462480   12.08407297334235
H         4.20361507261124   11.86112187870451   12.63101793119572
C         2.64840519196778   11.43205009153555   11.22453650787839
H         2.36698440866830   12.46757744376880   11.09910364526726
C         1.98009604093707   10.43939885648631   10.52894704529960
H         1.17120941104395   10.69626496304186    9.85944922607090
C         2.34684286141042    9.11648579893456   10.69472005504619
H         1.81461327415097    8.34479874910374   10.15681909392834
C         3.17721908677983    6.29656931675438   13.44094638013304
C         2.46363460353437    5.09968441032187   13.42777225519934
H         2.37966866351892    4.55795997604202   12.49095289164197
C         1.85734281679110    4.61438843575738   14.57162563218443
H         1.30082392462154    3.68841429238648   14.53438153613703
C         1.95747139112587    5.32329131250446   15.75734583324651
H         1.48059461698208    4.95272421145282   16.65324677831371
C         2.66827762044735    6.51143822077591   15.79036711823075
H         2.74728614383783    7.06726085948497   16.71403669804737
C         3.27029073401039    6.99278732736298   14.64123350966289
H         3.81283691667727    7.92650895579622   14.67266380338754
C        -1.52561407460649    3.77971004082537    9.28722793381680
C        -1.04254734608314    3.31667111539794    8.06427524113603
H         0.00772216087623    3.06027116386703    7.97789432454724
C        -1.87670939772840    3.18657373687776    6.96888005255107
H        -1.48327213111214    2.82282326604009    6.03113025502450
C        -3.21621282781897    3.52254245970248    7.07902483023783
H        -3.87145633729455    3.42263496947079    6.22556915214942
C        -3.71305887600725    3.98701620962721    8.28558097035837
H        -4.75747099334366    4.25152699958680    8.37337295696392
C        -2.87299377873032    4.11187088559375    9.37837065294171
H        -3.26311598826691    4.47895698226581   10.31717819554534
C        -0.29505902806177    2.22888800372963   11.66602924377574
C        -1.45845849923830    1.50776808957315   11.91659151092367
H        -2.40509558401114    1.89269948160165   11.56430509377101
C        -1.41917483819983    0.30435054283394   12.59809951059191
H        -2.33321556291798   -0.24176351414178   12.78445695635398
C        -0.20859128794063   -0.20414646995660   13.03967461898568
H        -0.17786511423517   -1.14502991690720   13.57071891361608
C         0.96096592636871    0.49534929820143   12.79113951482227
H         1.91238646362677    0.10350141187384   13.12329782268013
C         0.91313330063445    1.70013382505832   12.11288895471041
H         1.82431877541659    2.24320228910098   11.90774382228799
C        -0.73673492287057    5.29171456470310   11.97471694247225
C        -1.74015350289790    5.18190820475582   12.93104457770269
H        -2.34069154702850    4.28417906729658   12.96645537697550
C        -1.96723062389250    6.19645985785713   13.84366800974657
H        -2.74965281660900    6.09364384698863   14.58237562334885
C        -1.18755080369401    7.34109379792260   13.81844910270490
H        -1.35946606868141    8.12949932502639   14.53693247338657
C        -0.18293947359603    7.46836466747524   12.87415060778650
H         0.43681729074866    8.35387824183327   12.85196513859862
C         0.03333294219839    6.45116934576709   11.96335092526426
H         0.83062356358260    6.53646992821335   11.23532845671006
C         2.54624207439114    0.69202489791768    7.49090060835538
C         2.85267323235849   -0.47061880348366    6.79124490863981
H         3.26072138916921   -0.39732411642573    5.79238863456246
C         2.64848709794275   -1.71632075533469    7.35792398741231
H         2.89481415556379   -2.61004774146489    6.80177600702628
C         2.13033651174401   -1.81811729605793    8.63839048032913
H         1.97291089379756   -2.79092341054166    9.08162490134853
C         1.81540977163657   -0.67062669394505    9.34750778148075
H         1.40873431659018   -0.74073649151203   10.34587840468130
C         2.02201992781511    0.57146242996193    8.77635062527160
H         1.78426327268726    1.47254578025667    9.33246283156436
C         4.59126669419548    2.71439719876402    6.12849349922721
C         4.90321561300435    3.94715702727966    5.55949543838928
H         4.12274346828790    4.68660912074348    5.43718593036192
C         6.18800326794788    4.24244412031595    5.14104108146744
H         6.40537727226695    5.20655105945267    4.70311061772540
C         7.19421993249832    3.30181771603295    5.28513471101144
H         8.19905648913948    3.52796702439798    4.95863413510254
C         6.90369539303954    2.06864444017402    5.84302600169565
H         7.68386770432288    1.32881553873826    5.95312360925439
C         5.61500832974808    1.78158318528262    6.25935585498112
H         5.39724136235314    0.81453740889029    6.69029216714403
C         1.56293568139825    2.89361332436127    5.44986826033790
C         1.17324613371465    4.22190442666284    5.30233475122022
H         1.58296637188434    4.96441154178388    5.97395607112423
C         0.27162445854958    4.60477434584770    4.32667101663113
H        -0.01865240532510    5.64208311563438    4.23402149220520
C        -0.25920334224311    3.65567703158515    3.46915761097243
H        -0.96442273340329    3.94851750492499    2.70476057821517
C         0.11394444620476    2.32823933322967    3.60081488596624
H        -0.30217600109818    1.58321598706217    2.93754208212091
C         1.01486053961820    1.95427451090319    4.58263238682914
H         1.29390001485679    0.91595685907300    4.68548169287431

