62
CSD_code = LEKHAL | q = 0 | S = 0 | Stoichiometry = C22H27MoNO9S2 | MND = 9
Mo        4.15860677569638    0.85924759052068    4.31889795819624
S         4.82828584888773    0.54194905609358    6.75732151373419
S         2.73906188294667    2.77982794253986    5.59619197663358
O         6.95590641489326    1.49981008128790    3.84376208457851
O         6.96536166428534    2.67475845022385    8.21656852244780
O         5.15320773578841    2.47302191772093    9.53608843114902
O         4.93673338995292    4.89831905032534    8.06670438972505
O         3.33705583183363    5.34246020771269    6.54361799939009
O         3.72395386814701    2.77361419931065    0.90074277724433
O         5.57535328725172    3.48887889437943    1.96197678090409
O         1.72597001528836    5.40508039486357    4.23068019112590
O         3.35378443480654    5.40849820435995    2.67697203021194
N         5.83461057231496    1.27625620108988    4.09154743303113
C         4.83929239482766    2.16972141708904    7.24462760175474
C         4.08136172752399    3.16107209237435    6.70925467098003
C         5.79191351956824    2.49735706359772    8.37205668402447
C         5.93403631557786    2.84192086448465   10.66778702919236
C         4.18102103905181    4.53597241885800    7.19365395862643
C         3.31830040625369    6.70231430227559    6.94078673575585
C         3.86446404723738    2.66835090077183    3.27337289818316
C         3.18745275514241    3.53701995202792    4.03043896492120
C         4.34192904072438    2.99600121460084    1.91825327988595
C         6.19976054527259    3.78514441758300    0.72090957771538
C         2.66627964453211    4.87385093983744    3.69831266314296
C         2.89197327532140    6.67085742145738    2.21878356225820
C         4.11633851969987   -1.30828382386179    3.58348603080472
C         3.54875702389777   -0.47035784272038    2.56238814465983
C         2.35548065479612    0.11456042796324    3.09903133567321
C         2.18419474973451   -0.37086513160585    4.42664394703697
C         3.24139174437894   -1.27126469121033    4.71361481448277
C         5.23985379231192   -2.28113026626724    3.38869739623825
C         3.96968442617286   -0.44596130781049    1.12646731845139
C         1.35165694260453    0.90733595461082    2.32116380477850
C         0.98347925179438   -0.15275189714819    5.29536596451221
C         3.32976543019599   -2.17950160527633    5.89841469893439
H         5.29773860134110    2.69209817730740   11.53600838711808
H         6.22787300977997    3.88898163392636   10.57727991599947
H         6.82969875251483    2.22066958797241   10.72851573597851
H         3.13365438562079    6.78151677704149    8.01395294236900
H         2.51095711661256    7.16056505114118    6.37491301000831
H         4.27508692135111    7.17710749854068    6.71116198169584
H         5.89293784823297    4.77592561776162    0.38000711497317
H         5.91814048867706    3.04412006225937   -0.02981908929429
H         7.27095104604712    3.76236653928697    0.90533698398254
H         2.91436394304836    7.40014551155077    3.03134139991486
H         1.86878265502323    6.58700461753443    1.84670660332391
H         3.56519050918267    6.96829462003737    1.41921198068161
H         5.97287905896899   -1.88902398851322    2.68616156904930
H         4.85385460992310   -3.22296971580448    2.99373817330109
H         5.74403941588181   -2.48380532850325    4.33206940154038
H         3.46759099894840   -1.24839525671291    0.58247987334754
H         5.04464836227347   -0.59095935343930    1.03564032564460
H         3.70659223073703    0.49989399613145    0.65778997683003
H         0.80356822712610    1.59340398871228    2.96624968271040
H         0.63307104610187    0.23069137442774    1.85422939282951
H         1.83614010606670    1.48672068396834    1.53695799912737
H         1.26217113614008   -0.11629844767909    6.34773912095341
H         0.27614489708529   -0.97336918825496    5.15921686959641
H         0.47880693477536    0.77813514120184    5.04532022512059
H         2.79678797100288   -1.76864889179263    6.75237388803361
H         4.36513238881114   -2.34346563862221    6.19195333416437
H         2.88651837028144   -3.14509008149857    5.64568003090539

