26
CSD_code = LEKJOB | q = 0 | S = 0 | Stoichiometry = C12H7NO5W | MND = 9
W         2.42105001424995    1.73084345876361    6.61213680030954
O        -0.43477035779578    2.74060512380716    5.24384714676804
O         0.48614742241200   -0.04530291368364    8.63850839867534
O         2.77525374761407   -1.31998855487246    7.23323753396319
O         4.68670388369384    0.40974372703507    4.89776931366401
O         1.78780769221326    1.76520613552043    3.54348706472609
N         0.34174186532219    1.27150143022344    6.79265789308420
C         3.63228588230499    3.65300196860077    6.99605699751156
H         4.40607011660633    4.10241925131244    6.38403235561019
C         2.27155641485486    4.04562227482172    7.02836856480130
H         1.81379400281687    4.80771933363500    6.41238021965715
C         1.66051017018598    3.39707778394897    8.12545138320410
H         0.65579982757243    3.58690190702958    8.48564654385576
C         2.63038542397506    2.60018089780778    8.78176078122986
H         2.48958654125440    2.08545502797553    9.72266238929480
C         3.85633942036157    2.75537208429400    8.09173178564569
H         4.82577318550852    2.41569551665186    8.43752412459310
C        -0.64378966386872    1.94031618854257    6.13280811386740
C        -1.94971741232917    1.53574797351055    6.75241872749936
H        -2.89890525721391    1.89364350687988    6.40009573621348
C        -1.67641329582089    0.71041997303336    7.75926332430012
H        -2.34445744323691    0.22007256184363    8.44229038828038
C        -0.18501174908095    0.55382672782131    7.82302640424847
C         2.55309344686062   -0.21731815683300    7.02301498921249
C         3.88540618991031    0.92704812760261    5.54822001238647
C         1.92175993162884    1.74018864472750    4.67950300739781

