39
CSD_code = LEKKIY | q = 0 | S = 0 | Stoichiometry = C18H16Cl2N2Zn | MND = 4
Cl       -0.98071385184398    3.36455008833144   10.21328300391602
Cl        2.90745192055537    2.51595150871943    9.87139019519892
C         1.67805073117091    2.44107290137649    6.49105564953808
C         2.15264118763717    1.70882744073865    5.38170648915062
H         2.79034201635574    2.19472664886407    4.65947084575211
C         1.80154581123598    0.39381547410936    5.25195320954893
H         2.15467634390563   -0.19814190649260    4.41974474429787
C         0.97179225178485   -0.20346123664373    6.22235891561661
C         0.56994490032146   -1.55249606268119    6.17267694818484
H         0.90808067193619   -2.16466312770600    5.34948196284704
C        -0.23002669033852   -2.07147887325488    7.15330755343552
H        -0.53368466505350   -3.10666894776807    7.11390353425762
C        -0.66519832076256   -1.26746530164703    8.22159234261421
H        -1.29549684324226   -1.69910251239641    8.98395168666179
C        -0.29671299782935    0.04632839161323    8.30229806976589
H        -0.62351480009789    0.67861698476577    9.11531807500228
C         0.53190081664995    0.60846730913084    7.30938785156936
C         2.05184154201418    3.83101489705288    6.66817649797587
H         2.72412118491612    4.25925162568487    5.92498111280912
C         1.97037994749848    5.83472596970043    7.86617967057711
C         3.32154777937032    6.20728996366929    7.96262208485941
C         3.61326238982934    7.53304105547253    8.25605560086540
H         4.64769217213983    7.82893020425104    8.35061015106773
C         2.61266194380579    8.46987697891807    8.43118997578587
H         2.86625335892637    9.49595043514155    8.65068064379103
C         1.28524382250259    8.08796927779017    8.33857634175092
H         0.50227853934727    8.81706323346015    8.48417837706790
C         0.94360301309558    6.77365775173217    8.07014449256045
C        -0.48714284577800    6.35897776201089    7.94808277468082
H        -1.14622620995156    7.20560238907213    8.11932689339407
H        -0.69080157484182    5.95055215370185    6.95868183667652
H        -0.72156531544053    5.58276035022590    8.67710304227615
C         4.44363223511720    5.21910903284439    7.85020787020932
H         4.14333697000370    4.23205905703483    8.19833358778824
H         4.79400324528582    5.13594776307804    6.82069452144898
H         5.28292142998406    5.55099589209333    8.45695412111386
N         0.89649473232340    1.89826031205348    7.40677260599790
N         1.58404665427545    4.51789939002744    7.63352735839901
Zn        0.90723650319985    3.13188572594391    9.12283936154590

