84
CSD_code = LEKNUM | q = 0 | S = 0 | Stoichiometry = C42H34N3O2P2Re | MND = 6
C         5.70891907911495   22.45855510234550    9.42224663940036
C         6.61853864233142   25.57426989113512   10.06784941342084
H         7.24240476283701   24.70200754356545    9.92083917977100
C         7.16193584957772   26.83154771839046   10.10175752867521
H         8.22678283046407   26.96028663480979    9.99783120580839
C         6.31580901033233   27.93930124225057   10.26794064757577
H         6.72393148274618   28.93885467103193   10.27407903285506
C         4.97661364109853   27.72921186918623   10.42717716846398
H         4.27364386150408   28.53434936960343   10.56808071813052
C         4.47625849384783   26.41000766264082   10.43223089173970
C         1.90446503320651   24.35168051948979   11.37357938176097
C         2.14380732416638   22.97850282679510   11.66413488504486
C         1.19666747752230   22.26091601588589   12.44412383718011
H         1.40542842997784   21.22353221837163   12.66021035376698
C         0.08068375760583   22.88108653140522   12.90283239575829
H        -0.63720412953388   22.33554620080395   13.49977616775884
C        -0.19002816576235   24.24586487825247   12.61676096768913
C        -1.37541915025046   24.85628189603252   13.05567258997575
H        -2.07868884834245   24.26741911344450   13.62866620516072
C        -1.64557540328349   26.16871865607632   12.76408941434089
H        -2.56168422702138   26.62708137915547   13.10844149261407
C        -0.73122444015327   26.91843834563312   12.02045692544063
H        -0.94872375262094   27.95284265185246   11.79423509718389
C         0.43946733645668   26.35287360808359   11.58223752844292
H         1.15174857903457   26.93760231429050   11.02079054160107
C         0.74015985053578   25.01121211841864   11.86853012159337
C         0.88348189634882   22.42659048009134    8.94292465464241
C         0.33728088632300   23.68103248056644    8.67949067896828
H         0.93583735542354   24.43100463508024    8.17887601139180
C        -0.95339535866008   23.98004296554728    9.06762013741623
H        -1.36346390848490   24.95927816211099    8.86826899236096
C        -1.71286562900866   23.02974398819641    9.73113790839160
H        -2.71832805533339   23.26658779461667   10.04512966204518
C        -1.17436205851907   21.78448014430758   10.00441049670902
H        -1.76056542117368   21.04593737542978   10.53116436100375
C         0.12207965295224   21.48433312229441    9.62562719884860
H         0.54643272325932   20.51951862646153    9.86389507506884
C         2.80110235270494   20.35109562587889    8.65275983389217
C         3.72668533072554   19.79616499243483    9.52783849767976
H         4.31312976536461   20.45508695642611   10.15268565233197
C         3.87349756190255   18.42179564929870    9.60018219576860
H         4.59423304241738   17.99306925564136   10.28034931183993
C         3.09776644139017   17.59860623469299    8.80113087050632
H         3.21368215062571   16.52597054335341    8.85419890104405
C         2.16366641147993   18.14873936414714    7.93642473872541
H         1.55021007374686   17.50504931227980    7.32238733371327
C         2.01117860432658   19.52038683244444    7.86112311493976
H         1.26598090496622   19.94677289603723    7.20206860323400
C         2.69513225696995   22.50817371767906    6.73462393437473
H         2.45257736468690   21.59839369542438    6.17997039146638
H         1.93862731506421   23.26457299577739    6.50651745417073
C         4.07760903531998   23.02364089618929    6.34557599051504
H         4.10995436548480   23.33006909032782    5.29629598806102
H         4.82287605949121   22.24256591543223    6.51782478435262
C         6.15463299092601   24.98355654850539    6.92993266092786
C         7.16483459475219   24.04940063084500    6.71866466776222
H         6.94201676873371   22.99482532906974    6.78258132695012
C         8.45165009803884   24.47130873343222    6.44282964043178
H         9.23047655080141   23.74281582765497    6.27269491435299
C         8.74670959258298   25.82484531685904    6.39696047620550
H         9.75441535262821   26.15111672595316    6.18668319264183
C         7.75136401665898   26.75809628003829    6.63351526943628
H         7.98131428647065   27.81320385754157    6.61332439138753
C         6.46149053163547   26.34159522253200    6.90584590375751
H         5.68585930611849   27.07003015412699    7.10121956137893
C         3.45469924084633   25.75681956110031    6.73043775529032
C         3.60314540904365   26.09188248912568    5.38576357659082
H         4.36178150476391   25.60016283074971    4.79175472957176
C         2.80085551940735   27.06400752799908    4.82064845875892
H         2.92108966398224   27.32109900995276    3.77826758987837
C         1.84557851338132   27.71317609941734    5.58897613877041
H         1.22042504178369   28.47247921764408    5.14290712990936
C         1.70231223454730   27.39441308252037    6.92767412155477
H         0.96735289256688   27.90452588416380    7.53293014297711
C         2.50594627971009   26.42067406327457    7.49667291213635
H         2.40277343823843   26.18964765558601    8.54575031726945
N         5.30595681788750   25.33403538510284   10.20207003293524
N         3.20611389061400   26.16396264829903   10.74208886508107
N         2.92011241391744   24.87532793311962   10.64856473701228
O         6.67504065277488   21.82206463771914    9.39400233281145
O         3.23987001506255   22.43640394060808   11.26347312927612
P         2.64579999307529   22.16162649184285    8.57014670759407
P         4.50220461025712   24.44493848128493    7.45749666251404
Re        4.19021933364505   23.61826370679968    9.69664955018588

