102
CSD_code = LEKNIZ | q = 0 | S = 0 | Stoichiometry = C42H51Cl3N3O2Ta | MND = 10
Ta       -0.27739048871158   -1.39240906724728   -5.94493299901392
Cl        1.42492726891364   -0.96815694917171   -4.37585070904310
Cl        0.18623664981843   -3.60236754784175   -5.64712743458555
Cl       -2.02765172902100   -2.11268722651814   -7.36631265257771
O        -6.19787249909564   -0.20950587053848   -1.01239403561223
O        -5.88412085052835    1.57597271491566   -2.33814615031153
N        -1.83572595990807   -1.75448365734520   -3.81037055943864
N        -3.46323259473282    2.59047580685566   -4.15389344012619
N        -1.23190621098987    0.32170441211768   -5.52146308171321
C         1.15526138704997   -1.15736302508553   -7.90594537680918
C         2.53891619792470   -0.97724342138030   -7.39693839639112
C         2.94001918329162    0.29421699764964   -7.64651074168561
C         1.88517955073549    0.99276063410960   -8.36411226162290
C         0.83559494885257    0.14968369433781   -8.53789382018627
C         0.95664066486834   -2.36893619694712   -8.80598623013525
C         3.34695617269892   -2.07850379742584   -6.78769259121250
C         4.24881291568728    0.92312633280780   -7.30321200819305
C         2.03487424981151    2.39158392640386   -8.85783092270014
C        -0.38952694893843    0.37716034537580   -9.36339541180703
C        -1.99605101568418   -2.90277814081717   -3.02477695107251
C        -2.83470226773263   -3.92781496312568   -3.47476272720929
C        -2.92993523835810   -5.08891422170640   -2.72290989575051
C        -2.20562666057052   -5.24046709733194   -1.55513080611264
C        -1.36781397546280   -4.22614165625450   -1.12846297810226
C        -1.24816325731595   -3.04818681541860   -1.84935890662425
C        -3.58394463068196   -3.78354901115213   -4.76289506790207
C        -0.32653446624119   -1.95640265649673   -1.39624598297547
C        -2.40860032604138   -0.63338442456425   -3.57465126366131
C        -3.40676516472147   -0.40747017959622   -2.46192568696595
C        -4.84891835860174   -0.41532633166886   -3.00553203864390
C        -5.72971199106184    0.29115336169615   -1.99759971094282
C        -6.59924543824608    2.41656712827710   -1.42836322797889
C        -5.67062788270376    2.99354613823697   -0.37074849510676
C        -2.12750492259265    0.47289947208811   -4.45308518095114
C        -2.70314079054606    1.65618970137003   -4.20558353374184
C        -3.55369309806317    3.80287842473345   -3.51378036488118
C        -2.57756327759774    4.25500210597965   -2.61401987938476
C        -2.78855586594463    5.47216001546196   -1.98266013264530
C        -3.92590893094458    6.21831406822569   -2.23791769166504
C        -4.87250902669534    5.76594422273078   -3.14206712415726
C        -4.70078961224619    4.55681580927096   -3.79497554471120
C        -1.34920749855292    3.44520540779758   -2.35870235890841
C        -5.69554426035858    4.03870139726197   -4.78311187880706
C        -1.21086472474003    1.54586530335625   -6.26815286323801
C        -0.15514129016956    2.44687298617200   -6.08802601959929
C        -0.19462592127582    3.67202230600908   -6.73893604021325
C        -1.25351494124885    4.00908493646755   -7.56036243392240
C        -2.29653078122368    3.11896011077932   -7.72538325705086
C        -2.30144571961906    1.89048580168084   -7.07744000277387
C         0.99506138774042    2.11673047785527   -5.18979053100800
C        -3.49001977334685    0.99028886921394   -7.23291148450967
H        -0.07241785838678   -2.44044459220402   -9.15125965124417
H         1.60290701719031   -2.26970459254986   -9.68026236886512
H         1.21736945293580   -3.29346624736900   -8.29432805889468
H         3.92093744346948   -1.71600681042616   -5.93645811713154
H         2.71102137968542   -2.89164475675747   -6.44421455197582
H         4.04963033986876   -2.47951904396636   -7.52074743923815
H         4.85025838951887    0.25487890200954   -6.69373474060285
H         4.80538691080886    1.15889108610363   -8.21055378860232
H         4.09862351198589    1.85317567156614   -6.75499750689399
H         2.71838692477092    2.41693804625295   -9.70756279610810
H         1.07870078128961    2.79916177277820   -9.17381172627725
H         2.44862649693314    3.03135126126458   -8.08059479409470
H        -0.66382936360442    1.42941888212929   -9.37242779719488
H        -0.20377482201898    0.06953948815947  -10.39435447980249
H        -1.23196513376626   -0.19830595303634   -8.98660817072746
H        -3.57712263424408   -5.88367001904167   -3.06408048226509
H        -2.28802792288791   -6.15116724606811   -0.98122773780729
H        -0.79215985973710   -4.34785871644655   -0.22242741934524
H        -3.99222044858316   -2.78100996273522   -4.88118074344212
H        -2.90575338578386   -3.95887462664233   -5.59924244264663
H        -4.39270158377737   -4.50771779442174   -4.82255010949003
H         0.29820447079928   -2.30410098963013   -0.57762035046427
H         0.31393368869745   -1.63660921788388   -2.21786832439289
H        -0.88686969713218   -1.08545257071518   -1.05344392527895
H        -3.30772625215286   -1.18896216088610   -1.70730332604820
H        -3.20842057658816    0.56007345713893   -1.99371222898252
H        -4.89721574318443    0.11792755384454   -3.95436754215093
H        -5.19266838450522   -1.44129151879249   -3.13179525722161
H        -7.02934213909943    3.20824096918199   -2.04418081132134
H        -7.39480777901949    1.83018016389511   -0.95842464671295
H        -5.25696344794581    2.19302471444001    0.23787020005659
H        -4.85814790618949    3.54203515927655   -0.84166180245426
H        -6.22743263605779    3.66914442818478    0.27145410125539
H        -2.05185257234894    5.83756098644712   -1.28263942986647
H        -4.07300085207357    7.16005823419611   -1.73135518368015
H        -5.75277121955271    6.35861001920015   -3.34147194052691
H        -1.60577212127875    2.46368043414396   -1.95774802449344
H        -0.80459339828578    3.28693817666709   -3.28946858227572
H        -0.69640529723229    3.94844618160396   -1.65062024938285
H        -6.54896020173583    4.70671434510732   -4.86182117849067
H        -5.23042133903424    3.94339747173623   -5.76354319636468
H        -6.03812923134615    3.04998109917623   -4.48266288413985
H         0.61316888142854    4.37304958311382   -6.58892998404300
H        -1.26907696758288    4.96511680526951   -8.06210978646330
H        -3.13208444030166    3.37805351692709   -8.35955101197722
H         1.52861572375881    3.02081000562718   -4.90378328728266
H         0.66373303819900    1.59519176479280   -4.29394709228829
H         1.69104502122982    1.45533272500335   -5.70560211967245
H        -4.25611050316926    1.25723463308996   -6.50395778444470
H        -3.91829295183107    1.10517922109510   -8.22606247703698
H        -3.22166298902709   -0.05161059141813   -7.08496806677586

