88
CSD_code = LEKQEA | q = 0 | S = 0 | Stoichiometry = C42H33F3IrN9 | MND = 6
Ir        6.28070659584403    6.81229082729173   13.50460061394562
F         6.34173211953971   11.94929108711654   11.38835249720754
F         6.94353448970645    1.31323691502181   13.20685102733473
F        11.68854438797205    7.67636181263773   12.88711606332767
N         3.56415086986829    6.05979402327003   15.08900481298859
N         3.74526347293441    8.05560171268891   14.22060032483654
N         1.62925403650058    8.98410059976479   14.97672396508136
N         7.43486614825685    8.17203625133199   16.13645151698090
N         7.65581052133761    6.01078770489397   15.90800710571768
N         8.91078041575573    5.54442463820406   17.93643570334666
N         4.69575074706094    6.04749622667364   10.85474308964460
N         6.83051066140624    6.47735083037220   10.70392165307357
N         7.10395570631053    6.18915212944865    8.30672432814198
C         4.37654978465377    6.85169137401892   14.34294022147427
C         2.42672532946932    6.74325063497730   15.43819650399594
C         2.54178609911403    8.03417470462949   14.87034493604675
C         0.54852642187381    8.66260663951915   15.66965804302952
H        -0.19058124930151    9.44685493031216   15.75067094707635
C         0.33371985203935    7.42230057959853   16.26479455390436
H        -0.57914644157310    7.24409955859533   16.81003061752051
C         1.28877018857202    6.42146035659026   16.15699882333470
H         1.14449737262555    5.45141599435266   16.60829962452007
C         3.85569713515922    4.70989101202969   15.50570363766364
H         4.62401732100057    4.31437315909783   14.83853758828582
H         2.94513183909094    4.11124034278772   15.40501593930588
C         4.35644668951479    4.66919300327038   16.94627664175136
H         4.58169360559940    3.64464353615200   17.22670478221546
H         5.26462250345015    5.25803537517585   17.04149764404961
H         3.61001340352885    5.06624645045099   17.63127479123789
C         4.37783089348759    9.09056471054491   13.50274114555677
C         5.67753618657174    8.78088450569594   13.05578768076003
C         6.31095687318474    9.78430266060770   12.32471786536526
H         7.30364485264330    9.63367057900652   11.92626519002939
C         5.68422291409553   10.99581887335555   12.09540886620708
C         4.41207149997714   11.27936092306224   12.55787345434887
H         3.96077585616387   12.23715617106056   12.35510392762440
C         3.74412467540717   10.30267528411631   13.27409618446422
H         2.74778647379040   10.47290971219053   13.64988935747046
C         7.13365087594954    7.12921189058384   15.32503046697604
C         8.15816303979865    7.73336515140184   17.21758633982484
C         8.29209665504795    6.33235306812658   17.07464738050793
C         9.44212747925058    6.15266019781792   18.98436202072018
H         9.95061378748990    5.50077807188476   19.68029952870550
C         9.37683509961088    7.52437104703789   19.21664040321528
H         9.84183550806574    7.93797469365183   20.09701580450458
C         8.71811237162709    8.35395032029738   18.32090266072833
H         8.65378116301486    9.41968458932934   18.48038696714351
C         7.13864799360824    9.56229499063833   15.88727428046728
H         6.26618149422601    9.61092771793918   15.23459115751668
H         6.89970246588241   10.03770448389626   16.84342398988510
C         8.31402806015273   10.26497859382290   15.21660051578537
H         8.06747223114044   11.30832893479598   15.04303677439760
H         9.20572942739554   10.21281169374401   15.83771329501049
H         8.52253199310904    9.79336081096839   14.26048922860470
C         7.50937277850030    4.77404773762423   15.25410203549296
C         6.83448428820682    4.86063926179781   14.02277567009998
C         6.66991001325527    3.65049085095804   13.35008144125731
H         6.16913997066008    3.60672904826345   12.39299051676654
C         7.14460518404958    2.46924173795203   13.89224997451474
C         7.80322317749191    2.41440783593792   15.10581094257832
H         8.16048407991547    1.47175692485108   15.48765382925461
C         7.99133182601180    3.59630851345530   15.80039057086821
H         8.50656562417794    3.60845875819135   16.74741827215909
C         5.79254209080510    6.38791449119012   11.58133774349630
C         5.02697093503107    5.93411682027597    9.52733463502799
C         6.41138462906308    6.20900641531974    9.43135218603359
C         6.41583011109806    5.88468010244445    7.21828393731906
H         6.99131916446072    5.87225738728374    6.30368197905149
C         5.05456701012260    5.59267653431452    7.20222113835691
H         4.57216060641465    5.35086254341343    6.26878676885174
C         4.32233662667335    5.61246653025154    8.38096653751741
H         3.26632413436942    5.38737989708078    8.39248988329980
C         3.35890729530601    5.87401827682343   11.36148089611482
H         3.43782183245163    5.67038113270948   12.43065061335618
H         2.91126082396996    5.00397295091872   10.87056575443314
C         2.50557918971253    7.11616337148927   11.11692922713093
H         1.52343083399764    6.98907311703027   11.56476446761851
H         2.98092629082195    7.99012946659557   11.55543752454003
H         2.38194429784552    7.29413574858587   10.05127039875151
C         8.10252638035379    6.79205206678856   11.20593227735660
C         8.12780465983147    6.98331685022935   12.59936222347002
C         9.38118797122508    7.27747408568894   13.13257893009760
H         9.52732915026743    7.42806094340462   14.19249361654066
C        10.49277201979618    7.37962401451987   12.31509476214663
C        10.43709292196669    7.19712368452966   10.94689251227008
H        11.32895598838111    7.28885222033478   10.34858803766240
C         9.21170947878053    6.89157429503423   10.38244577886235
H         9.11160871699188    6.73250429886163    9.32082243485234

