88
CSD_code = LEKQUQ | q = 0 | S = 0 | Stoichiometry = C42H36IrN9 | MND = 6
Ir        6.56680994604171    6.50538784314340   13.48482610007065
N         7.77652650798104    7.88995832577375   16.07466577077022
N         7.82684182786383    5.70814419444764   15.95395642150913
N         8.97041243502395    5.24385794949486   18.04759015088861
N         4.92913694404755    5.79728874582018   10.85691216609562
N         7.09444298266517    6.03897705333405   10.69868367118145
N         7.33822382311517    5.67427281994427    8.30899989301671
N         3.79311791451390    6.03037040269556   15.08270925922394
N         4.13017290877811    7.96975182102909   14.13425111489578
N         2.08914169100930    9.08690453907433   14.83955338852874
C         7.41681909687497    6.83476639858935   15.29981113456550
C         8.44761838835626    6.03432821779976   17.12623732192922
C         8.42421073599190    7.44804950545893   17.20005293267977
C         8.99322343699412    8.07508913421542   18.29432883117581
H         9.00948442948416    9.14931035980874   18.40218590891660
C         9.54972791294137    7.24068206915008   19.25366125811426
H        10.01397063803722    7.65892688924814   20.13249831251152
C         9.51133170645146    5.85917977824091   19.08700962665949
H         9.93945957739555    5.20365132479378   19.83221431497414
C         7.59740990212424    4.45695646556855   15.34957763573931
C         6.96472549126027    4.53904844424083   14.09786026642949
C         6.72989436125861    3.31265867908995   13.47528597994641
H         6.25122433107315    3.28938659519645   12.50360634008510
C         7.08857354491649    2.10743847198550   14.06044626183140
H         6.88785109047141    1.17944846529039   13.54192437206751
C         7.70403771702762    2.08190079095931   15.30025912347206
H         7.98378154148542    1.14107405610198   15.75151908923175
C         7.96667658868819    3.26987254941306   15.95926004197775
H         8.45237421278729    3.28294460695437   16.92219870024908
C         7.60944800832437    9.28486586833620   15.74721802430655
H         7.38365171547206    9.82906392370257   16.66946267213773
H         6.76622228808909    9.37411224009256   15.06116650105694
C         8.86094715097853    9.84757187618616   15.08208417934688
H         8.71102595447776   10.89762520357400   14.84854543056311
H         9.72611306265262    9.75084888808595   15.73504165511351
H         9.05287878602165    9.30877638639161   14.15828502285191
C         6.05357544654915    6.05945343374730   11.57937910020496
C         6.65260780425967    5.77905442933917    9.43350313818553
C         5.24866613749303    5.62573166329488    9.53412198675368
C         4.51774704496818    5.33830948505870    8.39594451076263
H         3.44628826598444    5.20392677529465    8.41240928109908
C         5.24367404328322    5.22867832210483    7.21726236680818
H         4.74040014913026    5.00708267319606    6.28961146319647
C         6.62381173067357    5.40449693620463    7.22743518047855
H         7.19470569082578    5.32249561911181    6.31324614099378
C         8.38786734582164    6.25916893336560   11.19922233929816
C         8.42580029938719    6.49040809330854   12.58481974577723
C         9.70184096746094    6.68889019804888   13.11174064067409
H         9.83142650206945    6.85596810601590   14.17370234246945
C        10.83865944503420    6.67392270048185   12.31805900838636
H        11.80767393407679    6.83508395293446   12.77112955483049
C        10.74594884267400    6.45397564636048   10.95469250945343
H        11.63451688237412    6.44543467675780   10.34054914212499
C         9.50561661566225    6.23807044466759   10.38204668125966
H         9.39691305805687    6.05588702931345    9.32457027195350
C         3.58256215647503    5.75070608416719   11.36416692660742
H         3.64452849749494    5.58001373886298   12.44028204613857
H         3.06598493697028    4.90174893049942   10.90398892349637
C         2.83119284486715    7.04750105244588   11.07235758028718
H         1.84469228944416    7.01920068681111   11.52809112846210
H         3.37900486033373    7.89655199300886   11.47378028373567
H         2.71610124647268    7.19264772444109   10.00067550065251
C         4.66612340361379    6.72660647893959   14.30780150577076
C         2.92754155750884    8.06704261843859   14.77694673284427
C         2.71100122095534    6.81234134106955   15.39636293986498
C         1.54857131469265    6.60718397163063   16.11784649013514
H         1.32838330578590    5.66937087335489   16.60560795078665
C         0.67149023696697    7.68125783655755   16.17814463271549
H        -0.25548392663847    7.59462650790341   16.72216863912799
C         0.98374746911856    8.87624898694554   15.53649712879965
H         0.30614033790133    9.71723510741957   15.58052190526556
C         4.84510027528280    8.92237174974902   13.37679541798806
C         6.11689944654226    8.49818315885955   12.95083630722235
C         6.82267936560131    9.42316321735590   12.18171851832102
H         7.80230284964510    9.15883597169897   11.80571636988257
C         6.31198490516130   10.67686166101483   11.88270337493053
H         6.89524065541987   11.36523947743576   11.28638373861952
C         5.05953569311006   11.05408826024870   12.33828556497390
H         4.66288003065531   12.03114721066740   12.10335275243583
C         4.30963206029688   10.16970315861669   13.09275393429182
H         3.32785744652565   10.43255757378952   13.45430641680110
C         3.98104599124200    4.68039188444417   15.55395005136681
H         4.73119773880475    4.20734706130579   14.91643507651857
H         3.03213642953870    4.14300029519847   15.45763542975000
C         4.45386467402656    4.65789899360560   17.00442292310236
H         4.60537678520803    3.63111443470722   17.32390239867335
H         5.39832212147512    5.18714112029980   17.09633406852592
H         3.72531292303980    5.12874083666826   17.66159306308074

