124
CSD_code = LEKRAX | q = 0 | S = 0 | Stoichiometry = C54H60IrN9 | MND = 6
Ir        4.70676155812890    7.56839200903079   23.32378051194813
N         7.30091097616422    9.23332518876094   24.10169851329065
N         6.90509049508059    7.36314004402807   25.15903662563110
N         8.75953812924806    7.41571433959430   26.72520946045101
N         1.74807903238963    6.46896808060365   23.01364605442533
N         3.26369799165186    5.74434218222188   21.61575975305026
N         1.91460223416590    4.13105377143790   20.40058330602293
N         4.22177683191159    9.79190585097301   21.01379138846615
N         3.58079265692979   10.24406945913603   23.05261639723767
N         2.58517227096498   12.42494152621616   22.65476498344099
C         6.44475074293467    8.17518356212242   24.16418420370424
C         8.02305098648437    7.89033784597324   25.73635223381793
C         8.28070617097887    9.10376767564904   25.05289942390073
C         9.38031487442173    9.86012698172816   25.41431755293858
H         9.63404194028276   10.78812464928417   24.92352217161302
C        10.15208864090557    9.35593993165161   26.45328874903302
H        11.02464262154773    9.89310245101547   26.78966810804169
C         9.80351160825749    8.15614638197212   27.06506338598895
H        10.39819854212525    7.76032274811356   27.87631167668611
C         6.21236837071274    6.16804425336005   25.40502237057598
C         5.10319781303354    5.97225667564979   24.56967921091471
C         4.41471897940553    4.77489036452246   24.76166329429418
H         3.57183047768391    4.56082162212776   24.12411864616888
C         4.76611855294052    3.83701380077118   25.72658407487812
C         5.86157828014154    4.10846193184107   26.54280666606120
H         6.15856074407275    3.41166857961469   27.31218530744245
C         6.59683973124001    5.26648953454862   26.38221717326893
H         7.45432085203221    5.47512613748374   27.00281064694757
C         3.99262207145256    2.54027137834075   25.92406098405838
C         2.84455767722106    2.36840399152552   24.92435462214121
H         3.21291367490501    2.36605736257112   23.90080655153358
H         2.34695518165700    1.41709284726306   25.10524649473459
H         2.10545268920530    3.15880447291980   25.03471609674000
C         3.39785380539147    2.52642182487122   27.33944167057601
H         4.17710068764979    2.58899930369385   28.09373176229771
H         2.72633590663277    3.37250209498617   27.47324247115037
H         2.83545697937661    1.60929844555775   27.50424237417648
C         4.94914245076496    1.35267514398545   25.74981005364281
H         5.39266144523087    1.37441234800916   24.75663220501018
H         5.75178205570818    1.37965816510735   26.48108188990993
H         4.41105211398186    0.41400501831432   25.86896459431163
C         7.19377490047711   10.35943966948701   23.21112162824953
H         8.18795730986952   10.58403734017519   22.80960929282221
H         6.54234548671508   10.06142727554821   22.38739031197175
C         6.62524097084083   11.58418056172584   23.92406184040572
H         6.47270615870134   12.39307990031490   23.21407156870387
H         5.67302232270369   11.33975222122656   24.38813619155722
H         7.30359538306978   11.92690355497949   24.70189198109468
C         3.04875219773372    6.60980183378149   22.64993619234589
C         2.12416818201842    5.05039781047513   21.32670431951835
C         1.14370144227306    5.51310926756096   22.23771642652497
C        -0.13064706358896    4.97740921090046   22.18427093325102
H        -0.91855989201302    5.28927220218856   22.85339436567087
C        -0.34334582485708    4.00621612051810   21.21568249322489
H        -1.31142577407397    3.54151710905980   21.11775194147808
C         0.69137442869525    3.62678603130044   20.36554005695280
H         0.53124416527681    2.87244836658739   19.60823048931175
C         4.55744940142170    5.66546294707732   21.06847695644527
C         5.50190400939748    6.47407528994964   21.72062907243809
C         6.78747004949800    6.42724796773498   21.18980151439713
H         7.55333134701739    7.03117415160245   21.65892345220641
C         7.13743107756116    5.65069706165455   20.08431324178453
C         6.15371431890732    4.87027032199735   19.49044411055296
H         6.37594952353625    4.24771644607873   18.63935702653954
C         4.85853431851479    4.86987594506145   19.97978214801876
H         4.09379312159916    4.26041787749008   19.52400502045083
C         8.57050111798852    5.69941743634385   19.57307247255393
C         9.51965549572633    5.24197233558580   20.68894382938244
H         9.27416678708256    4.22742336203496   20.99507391746056
H        10.55033772096507    5.25884606922256   20.33917309300484
H         9.44382867353800    5.88437482190939   21.56182314282528
C         8.79898273853095    4.79768767952606   18.35676534024663
H         8.59777443185408    3.75728587853068   18.60018442735193
H         8.16793538845516    5.09668518485964   17.52276505533992
H         9.83694861573866    4.87359115130799   18.03726186807227
C         8.90511796950975    7.14143827436123   19.16337811479627
H         8.22319056905086    7.47758973171056   18.38424435602676
H         8.82010293411318    7.82082428814820   20.00731124214974
H         9.92221643166618    7.19827482421805   18.78006613046929
C         1.09609206163971    7.13080425189794   24.11664759402346
H         1.64698123132854    8.04701294711773   24.33373083896315
H         0.07538263399569    7.38430241537359   23.81322976193955
C         4.21061037873205    9.30840931259512   22.28416892183460
C         3.20112886207308   11.31330768169002   22.29147331168338
C         3.61040426235450   11.01830528749525   20.96833657789657
C         3.36685691689889   11.93942592131392   19.96548880745728
H         3.66038190787079   11.77021810729410   18.94029317603155
C         2.72056852587923   13.10509577358914   20.35309268258831
H         2.49787059802758   13.86911156084680   19.62552634260807
C         2.35670969434135   13.29411938430912   21.68312414316638
H         1.85270869452774   14.19922435084168   21.99123884256371
C         3.42547490859276   10.00146755908413   24.43322173666943
C         3.84645427028603    8.73087245610808   24.86006889701309
C         3.74270764842908    8.49552703089396   26.22644945845059
H         4.07074481779005    7.53493814857244   26.59802819274966
C         3.24932996181658    9.43097845145413   27.13495557946569
C         2.82494953233976   10.66055421259820   26.64560189992258
H         2.42971115719237   11.41633596188149   27.30454191186120
C         2.90975851202112   10.95355333792588   25.29514277245204
H         2.59039778388862   11.91195851042580   24.91596549816173
C         3.21652245836707    9.07189775324774   28.61302849043305
C         2.32608490136686    7.83822656158986   28.81535066177388
H         1.31246205528791    8.04837395154515   28.47858450418181
H         2.70336186852827    6.98507695833415   28.25873913774091
H         2.28990953111653    7.56982762292720   29.86944328629755
C         4.64618334508663    8.75797547674988   29.07741005171613
H         5.06197819107666    7.91326338722320   28.53493777662308
H         5.29210629709827    9.61868067087804   28.91331192705581
H         4.65351226263629    8.51904264743925   30.13913568924574
C         2.66792037590949   10.20350367390500   29.48698927040693
H         1.64437066683987   10.44935596452745   29.21261220432399
H         2.67062912338444    9.89142413239061   30.52986274831900
H         3.28299720678555   11.09654774911482   29.40209809199385
C         4.75656796127357    9.11091743950641   19.86047584516060
H         5.29637123064300    9.83926106109531   19.24672014967583
H         5.45331149216986    8.34881201548931   20.21621106905338
C         3.65118008944911    8.44872084824951   19.04372783214788
H         4.08396676235630    7.93421542919891   18.19091952173069
H         3.12751288328697    7.71796107865751   19.65392571758127
H         2.93341642928390    9.18443928734588   18.68598695299222
C         1.08447415046321    6.24568903405487   25.35836107889222
H         0.59933540597253    6.76837828565126   26.17725431540577
H         0.55058655073802    5.31612329238047   25.16943808553268
H         2.10702512032415    6.01595551637973   25.64592941809856

