82
CSD_code = LEKTIF | q = 0 | S = 0 | Stoichiometry = C29H39B10Cl2NRu | MND = 10
Ru        5.82828964973517    6.65412164349485    7.21442065210742
N         7.38246376811488    6.09951959682390    4.39969986274758
H         6.92738730017135    6.38502619569865    3.54566264068640
Cl        7.91627996156164    2.58300632824264   12.92048512333537
Cl        2.78284372662026    9.01684413455270    0.80030769919419
C         3.37432864294719    7.66369949539706    9.07286608313735
C         3.75330392192858    6.53971106715234    7.89374308164459
C         4.49257475736982    8.64531176638143    9.47896977994954
C         4.08647854204995   10.12030597305888    9.29418721782335
H         3.35022035872932   10.40363568288729   10.04140928101846
H         3.66111810123918   10.30826605078719    8.31363052174138
H         4.96224414659632   10.75572987525525    9.42204907748660
C         4.90405044780634    8.49906022669400   10.95462975965355
H         5.14396218953272    7.47242348212455   11.21268417486679
H         4.09633137746025    8.82913051214256   11.60180040535746
H         5.77405673408085    9.12344704172647   11.15424990787610
C         5.69254583548540    8.36827894034377    8.59533313900351
C         6.85884261358523    7.64004287454992    8.95572275898619
H         7.07855133385279    7.20752973104574    9.91975183660040
C         7.75349804159216    7.69155119938123    7.86101359489987
H         8.77393802036993    7.33335948262228    7.86801897778718
C         7.17573963207286    8.48117653484558    6.83988128951080
H         7.67917249306679    8.79759299669601    5.93701272636911
C         5.90000836991549    8.89982215883237    7.27399463989781
H         5.28455808552881    9.63572920343474    6.77893262385193
C         6.11457606894429    4.49188548685785    7.53642650526508
H         5.26728007193656    3.90870042035931    7.17404063707829
C         6.59985546858674    4.02459373278579    8.83369113722385
C         5.78466250531963    3.19100172456816    9.60978158616618
H         4.81871018086786    2.89719925399498    9.23132933110786
C         6.17625841088767    2.75116870516700   10.85725522984343
H         5.52806807693943    2.11666627502002   11.44045956980631
C         7.41121697191454    3.13079483583418   11.35874868475901
C         8.24677240020382    3.94785638168209   10.61443381212007
H         9.20792905240948    4.23855648275600   11.01016100592719
C         7.84028795086430    4.38782324040003    9.37113431194789
H         8.50903483891623    5.03058747072279    8.81998503309788
C         7.02870208786963    4.99929031616571    6.55800990446229
H         8.09905354039331    4.89361564746974    6.70710264386447
C         6.55199500186545    5.60237902422110    5.36383823208339
C         5.12163853374627    5.80794983575618    5.28916568166103
H         4.53121310705324    4.90190105199150    5.45516920758119
C         4.56647929152178    6.61039495327037    4.18868336310132
C         5.02646963468643    7.89550774536663    3.89233669228870
H         5.80661482071140    8.33270657841249    4.49569491920484
C         4.48553187609078    8.63655198846755    2.86033812137503
H         4.84985706816133    9.62975659520596    2.64799247818079
C         3.46181614540864    8.09725531073106    2.09827672035820
C         2.97834301945589    6.82748102466636    2.37084448674000
H         2.17756358196731    6.41633759142287    1.77691411546068
C         3.52856395565797    6.09737645915112    3.40544664790610
H         3.15004211489416    5.10672951445675    3.60809382969305
C         8.80846344312929    5.89554595585543    4.33268426092555
H         9.25034610585447    6.08564531829953    5.31564806290362
H         9.21749449475473    6.63638771481285    3.64029595163386
C         9.18934587867647    4.48760466332572    3.85805299470620
H         8.76148478172339    4.32174869080683    2.86706213653638
H         8.75191200801448    3.75105147711662    4.53518926148752
C        10.70030336451006    4.30773032544654    3.80382787000183
H        10.95095831251445    3.30778788918770    3.46005085730576
H        11.14003754362013    4.45054305604564    4.78863501880165
H        11.14732843072462    5.02735574020533    3.12147846410713
B         3.53852370199864    6.01762903910914    9.50598590545885
H         4.50109951775600    5.67809213361241   10.09121602086596
B         2.26057991217424    7.02169624988388   10.21558475683316
H         2.35245480849294    7.36000935140083   11.33689048012595
B         1.72752797694845    8.15424455821051    8.98156913789691
H         1.45972696125540    9.26204068218292    9.26605147695101
B         2.68876725315404    7.83671580534639    7.52055234535782
H         3.08264156536138    8.68097696033744    6.80320385150850
B         2.82816249305341    5.10419226616172    8.18855788272129
H         3.27611481550586    4.06465185920233    7.87408664337157
B         1.89465993690350    5.37902809855226    9.66932231397298
H         1.66093274948521    4.51003345444194   10.42760339420195
B         0.75917678792965    6.71568956818936    9.32977886199558
H        -0.28968390396985    6.79861379729068    9.85723584411831
B         1.02120250422020    7.24673697197259    7.64407005077273
H         0.17336865401905    7.70023613904387    6.96593729796063
B         2.30779791640948    6.23200026569381    6.96824121603191
H         2.40680541395934    5.98593588314425    5.82682905112500
B         1.10862399900932    5.52088446292043    8.07266517823129
H         0.32191874411843    4.73460178112166    7.68808266825457

