65
CSD_code = LEKVOO | q = 0 | S = 0 | Stoichiometry = C18H42Cl2NiP2 | MND = 4
Ni       -0.00208233197356    4.41747427538791   -0.00030474606569
Cl       -0.46839411104503    5.73517230048626    1.54900681129812
P         0.95039292275322    3.11783919019335    1.54050369952781
C        -1.08441998965772    3.04569614597005    3.55163977063408
H        -0.40925857031335    3.18853414976598    4.39162223208318
H        -1.96391395168128    2.51500054788892    3.91491588519672
H        -1.40144648049823    4.01995088695671    3.18796668018409
C        -0.43130604269884    2.23273333581481    2.43861433316373
H        -0.02084262717767    1.31608154333592    2.87359311897804
C        -1.46165559237543    1.87432951591658    1.36736881194167
H        -1.82670607771855    2.79631336182023    0.89674641284225
H        -2.31430378096296    1.35186531615667    1.79861675797872
H        -1.02364773853167    1.24417242924522    0.59398146072244
C         2.22206694825423    0.47746785285736    1.77402888222174
H         2.76036933992452    0.73350690236941    2.68055398080239
H         2.82896474422140   -0.23562626233185    1.21664654173941
H         1.29825576281569   -0.02757485445206    2.04431693056463
C         1.97034151254161    1.68716921305850    0.87931343490565
H         1.37226580458773    1.34216870037928    0.02651491088777
C         3.28245239323268    2.22780567459197    0.31463054576438
H         3.09969315130932    3.13627795544406   -0.25895351004287
H         3.73365075143282    1.49534554327276   -0.35264878424807
H         3.99362522944875    2.44467787556949    1.10841592568743
C         2.58478124456948    3.10590841909192    3.91054412591092
H         1.91844420057489    2.32677438508713    4.27410300172529
H         2.89554752047051    3.70933280801496    4.76313666443732
H         3.47626108337910    2.64474481377210    3.49238953720176
C         1.89633893883486    4.00045324408394    2.88813093736802
H         1.10849005828039    4.57045989921747    3.39353790262146
C         2.86781685326832    5.01805435727536    2.29333461901526
H         3.73432434831014    4.53923151874022    1.84549758380561
H         3.21634250870361    5.69599266762114    3.07078763382539
H         2.36401908183757    5.61160229881476    1.53025759835686
Cl        0.47100339066336    3.10338554119126   -1.55044403522063
P        -0.95017909456177    5.72217240139387   -1.53947558698261
C         1.08422858491829    5.79339825880052   -3.55154787191389
H         0.40908697612085    5.65109369763617   -4.39164460341030
H         1.96402767022813    6.32373776367067   -3.91464093398392
H         1.40067561582413    4.81890661552000   -3.18784656087887
C         0.43131649087327    6.60666615623108   -2.43859873996532
H         0.02104554793130    7.52346173156863   -2.87350552812209
C         1.46183816377930    6.96481244729541   -1.36747220170329
H         1.82704298434276    6.04269828368305   -0.89712411480165
H         2.31442579086639    7.48726734071967   -1.79887164905054
H         1.02411604589547    7.59491947206237   -0.59387011958678
C        -2.22238233714161    8.36239873837689   -1.77398951784518
H        -2.76044408561603    8.10619865191269   -2.68060900435354
H        -2.82947265544165    9.07531966956800   -1.21660307056731
H        -1.29847807974484    8.86743123645582   -2.04399480271041
C        -1.97081297463255    7.15271452051051   -0.87933230671264
H        -1.37277951096400    7.49766122994383   -0.02654642753095
C        -3.28274020153353    6.61155795417694   -0.31472546576818
H        -3.09989794510418    5.70304383571405    0.25879247304190
H        -3.73393372995520    7.34389736177202    0.35266885974963
H        -3.99390287636168    6.39471889090462   -1.10855219166411
C        -2.58460130647246    5.73373578057939   -3.91020032595787
H        -1.91838237428178    6.51291308299687   -4.27384588508709
H        -2.89533900883439    5.13029671268030   -4.76282594775094
H        -3.47615088396850    6.19483387596022   -3.49212812738892
C        -1.89593883009810    4.83956563137418   -2.88754470691094
H        -1.10825638289108    4.26958098500038   -3.39327635929243
C        -2.86755709994069    3.82155923308796   -2.29354274550026
H        -3.73422217279272    4.30009557693273   -1.84573299432561
H        -3.21584449948009    3.14371689061282   -3.07121520421759
H        -2.36395831574210    3.22780442025248   -1.53056399462707

