53
CSD_code = LEKWUU | q = 0 | S = 0 | Stoichiometry = C17H27F7IrP | MND = 8
Ir        2.41310577938728    2.01800892516234    3.95704743984183
P         1.28703165694070    2.92412367708133    5.76883974779014
F         1.55515418411917    4.68555240387528    2.86663718571210
F         2.06290339554127    3.21165239856785    1.37488254754815
F        -0.75772767245865    3.83261005075796    3.28103856232949
F        -0.41435564125610    1.81829080084365    2.62509157743905
F        -0.13812939702543    2.60557553332191    0.05395980449553
F        -1.90113183663384    3.43865713003440    0.94569624803896
F        -0.19109722175216    4.68908932149300    0.60044275045309
C         2.22139654284257    0.12318115654999    2.56782993627835
C         1.77978039342749   -0.26596722034850    3.84105482900169
C         2.86759895352745   -0.06374769271312    4.76840226262257
C         3.99095237901968    0.40920954732410    4.03950267038912
C         3.56764955017002    0.62214021760814    2.68691992765342
C         1.51994390550538   -0.10340569089316    1.26986377549686
C         0.50150196399231   -0.98548266611241    4.13633709846528
C         2.91687231737004   -0.63817664667502    6.15157290343427
C         5.39976089473371    0.48143208207155    4.54057246945656
C         4.46274292888842    0.89615858135951    1.51887859934162
C         1.48058446856744    3.32909105252247    2.62221042100632
C        -0.04697978544989    3.10156793666945    2.38869981641916
C        -0.56208227704414    3.47084916665398    0.97319291386821
C         3.89028881856708    3.51697000935822    4.13736339772696
C         2.18812619597968    2.73270652681606    7.35720752666211
C         0.88801017503595    4.70865360716507    5.88805090827649
C        -0.33080234596605    2.16835338997305    6.18789696393691
H         0.45367234009021   -0.25142168520837    1.41609483415068
H         1.92779324332911   -0.99735818075163    0.79377230771755
H         1.66656597550691    0.73057357744714    0.58726561395333
H         0.31440675911152   -1.03716890818261    5.20667695396832
H        -0.34487701081066   -0.49465523406029    3.65977062560631
H         0.55542375784504   -2.00761652132494    3.75612558019903
H         3.14186857310090   -1.70538087002876    6.09261218476358
H         1.96460526739672   -0.52926028009918    6.66898342489444
H         3.69483913736368   -0.16642981940627    6.74815418881422
H         5.88912781610862   -0.48316488901672    4.39099795816237
H         5.43410724011741    0.71633738043134    5.60245812322364
H         5.96988842289416    1.23595228079643    4.00472391690484
H         5.36390683288525    1.41907370623218    1.82931833451441
H         4.75717722545281   -0.04344654014560    1.04710515725608
H         3.95229661871140    1.50367377050957    0.77495956660290
H         4.57290077272818    3.25701330702928    4.94534775618489
H         3.52074143079046    4.52313104011208    4.31838060436856
H         4.45653550214535    3.54270213282242    3.20841557093618
H         3.14214288735578    3.24741435788625    7.27684518702356
H         1.61203954085174    3.16201418009501    8.17505807726356
H         2.37258808381892    1.68292928565757    7.56001685042047
H         0.42352024625052    4.91064451219422    6.85236606724372
H         1.80511521198402    5.28419996513060    5.79654198836952
H         0.21520824196619    5.00640580307136    5.09125014574134
H        -1.03466995918677    2.35031731127003    5.38053056047025
H        -0.72191478244099    2.59442789581888    7.11031476067690
H        -0.20990770139055    1.09499882326213    6.30702137687631

