69
CSD_code = LEKWEF | q = 0 | S = 0 | Stoichiometry = C20H46NiP2 | MND = 4
Ni        3.42806704254893    1.76766651088173   11.70656419626773
P         4.88124940877124    3.04937418790516   12.83118364915038
P         2.00500742133802    2.78276269869199   10.30557036241306
C         2.76140038346761   -0.17715469242433   11.69385355255569
C         4.04606206989668   -0.13347719891440   12.18450679106476
C         4.66509589887451    2.44905949370760   14.59640823870855
H         5.15136418111666    1.46646297407235   14.55978842078611
C         3.17544955034451    2.19595579234009   14.84126941809255
H         3.03002394836249    1.43998230538756   15.61224555005365
H         2.70928997200248    1.83952129941221   13.91068667759800
H         2.66091902259432    3.10021046343144   15.15458497951403
C         5.29967125805347    3.23588995073876   15.73545432097975
H         4.79097852806950    4.18271240789750   15.89676520902892
H         6.35384285997513    3.42665539644287   15.54665116839505
H         5.22302472388974    2.66010661580595   16.65842703144589
C         4.62459618984466    4.91649469514005   12.84735130538618
H         4.59179626831494    5.16107859401579   11.77920579803431
C         3.24412655694009    5.22559921794002   13.42250527120192
H         3.26268557177621    5.21105957042142   14.50916969963359
H         2.52321781263187    4.48549041940004   13.07476606999950
H         2.90870506501620    6.21459524698397   13.10971666835911
C         5.68544067535448    5.81202470289597   13.48185085545432
H         5.34656185815164    6.84701280914443   13.42544905571943
H         6.63378741119621    5.74975959727091   12.95476794265475
H         5.85209342407043    5.57393412989399   14.52698372665901
C         7.28009498585899    1.56616311215697   12.86960250694915
H         6.71685988026918    0.83340180442227   12.29655855583187
H         7.22547708199792    1.30405599314264   13.92331239109697
H         8.32456225880985    1.50794792646058   12.56441963071905
C         6.73866430345173    2.96768552288323   12.60819814334366
H         7.21849116992484    3.66539780788477   13.30057102689176
C         7.05009075293865    3.37235499227116   11.16879184225904
H         8.11976258556547    3.30811524139314   10.97211097182953
H         6.72582163808206    4.38953978766946   10.96007151583501
H         6.53549749806905    2.70012629010199   10.48239100651882
C         2.31752510415171    4.58232602208603    9.84123881038816
H         2.36331088050143    5.07547532071774   10.81923177553173
C         3.70371935830825    4.70150261017900    9.21171187220504
H         3.67911537306796    4.42618217385144    8.16052985526714
H         4.40374330602435    4.04522809644917    9.72920132337523
H         4.07048869779577    5.72598169837453    9.27777456508989
C         1.28087645185042    5.33103851168899    9.00779616603652
H         1.64888052972338    6.34005432282953    8.81890253743759
H         0.33225257297552    5.42180966628518    9.53017160354234
H         1.10537593074614    4.85684152733830    8.04809304991095
C         0.14790545805591    2.81322963940431   10.54312452812016
H        -0.31744443430273    3.33472017523280    9.70172154562328
C        -0.43375663413915    1.40624952541956   10.63199328888015
H         0.11524368706474    0.81928169909225   11.36461736575977
H        -0.39614298923080    0.89426740118693    9.67364482633525
H        -1.47642175947455    1.45354758659469   10.94506102407933
C        -0.14150871187467    3.56527278222597   11.84052092975751
H        -1.21113944581367    3.58185289937888   12.04701067402767
H         0.21254072921323    4.59285723169935   11.79503575889211
H         0.35880871431817    3.06576417294667   12.66998011582279
C         2.18880976690036    1.76981400045471    8.73609420995107
H         1.67503806397977    0.83968218753017    9.00848695036433
C         1.56694421801276    2.27892930577572    7.44252538151594
H         2.10246108790786    3.14245015992739    7.05672208724785
H         0.52092841312086    2.54284549862345    7.58215248684183
H         1.61710981445471    1.49579813520857    6.68526133493335
C         3.66843181847999    1.42137144939195    8.55632316357210
H         3.78548607506271    0.49769820362180    7.99048353317081
H         4.13311240708398    1.28683147898258    9.54421912528665
H         4.20507037326117    2.20766896298649    8.03255837952804
H         2.57053905858078   -0.52588700487791   10.68496173542188
H         1.92703788721051   -0.28177518798058   12.38391196752111
H         4.87576408236320   -0.41838981119737   11.54130429013887
H         4.23151485704885   -0.23708610830479   13.24788018799202

