65
CSD_code = LEKWAB | q = 0 | S = 0 | Stoichiometry = C18H42I2NiP2 | MND = 4
I        17.19092565658012   11.14155928773679    4.69592068992145
I        14.07972584675710    7.98160271505309    3.21175499955103
Ni       15.35388737808690   10.11024938720705    3.36871104753836
P        16.74227202562419    9.42914010733006    1.71621439950580
P        13.79529991546066   11.08753575411188    4.67707316282812
C        19.22593579486604   10.16603987937860    0.31260221185784
H        18.81331023612253    9.86324001690001   -0.64392153013999
H        19.84335987368575    9.36018718029143    0.70137274022554
H        19.88641428789455   11.01476537591343    0.13631519908144
C        18.15836865321153   10.60672655741428    1.31304647293104
H        18.66407032957969   10.72167660109027    2.28044846027866
C        17.60706778981405   11.97492594029033    0.91734638409283
H        18.38690046188941   12.73034905050796    1.00022563862113
H        16.79189828213439   12.27539706879184    1.57417148610363
H        17.24515199658485   11.97470259264453   -0.10890450622224
C        16.95566081343515    6.55310086591334    1.37331234082158
H        17.65332968026361    5.71859504190929    1.43624602370866
H        16.63370992828367    6.63822459517387    0.33836642114292
H        16.09546657471007    6.31009155447734    1.98898947946185
C        17.66987083702644    7.81136319376802    1.85718336721698
H        18.55844823481802    7.93882873564276    1.23114881226663
C        18.10951479382011    7.65877258258537    3.31331253135595
H        17.24058787146281    7.63245972113339    3.97238908627475
H        18.74913148107184    8.48470697955422    3.62155714075904
H        18.66134406656605    6.73052564733168    3.44874960117979
C        14.62401780682958   10.40937496918419    0.19773324523781
H        15.05662629181968   11.33711639918628   -0.17087837707889
H        14.24136587968862   10.59235664100409    1.20953035347173
H        13.77347301899979   10.15603978829080   -0.43385737620539
C        15.64484759104920    9.27024311338644    0.20579894157615
H        15.09786160600986    8.33850860893144    0.40142316418585
C        16.33134063712081    9.14030918435593   -1.14671997001636
H        15.58929125622954    8.85954896871395   -1.89444853565051
H        17.10168852742135    8.37225453796920   -1.13399367411620
H        16.77372108540940   10.08293544206104   -1.46116971799345
C        11.22652054447480    9.72447380429784    4.87795795575231
H        10.16853229519572    9.81216511083828    4.63210520721940
H        11.30927115948200    9.67774749053376    5.96038191483298
H        11.58477105329400    8.78842550045364    4.46023426814078
C        11.95771337889359   10.92651281339329    4.28578606431996
H        11.53216819935043   11.82540071230038    4.74786433233071
C        11.70312422245115   10.97860743319040    2.78144842046303
H        12.01915004669678   10.05102961035565    2.30864952608976
H        12.22244048140874   11.80990919666525    2.30834468131759
H        10.63740016907985   11.09670993370058    2.58970639413881
C        14.17621291005547    9.29736248674184    6.74616206330137
H        15.17821308302021    9.11647781853145    6.35396214014551
H        13.48748776719405    8.61408199089039    6.25416523701804
H        14.18606793515683    9.06621780804053    7.80986254884559
C        13.78141297267466   10.75673750916887    6.52097307076891
H        12.73661249106536   10.90411640565830    6.82447594783677
C        14.64511878926823   11.66364515203600    7.39394397567552
H        14.50115895068878   11.37090878892053    8.43353845545901
H        14.37095819170279   12.71135106740423    7.30616379071135
H        15.70145616997398   11.55667816058207    7.16654108205242
C        12.94837411445460   13.82085898609574    5.14913182222721
H        13.33412157086591   14.83026174531008    5.28918063477416
H        12.60380310130371   13.45605858652327    6.11465956788904
H        12.09570225549350   13.88766632587215    4.47544109267535
C        14.05374259536330   12.94693999289705    4.56603495960520
H        14.96220468952994   13.09776450834638    5.16193803396268
C        14.37476738629847   13.37630862701678    3.13500337032162
H        13.47435354917499   13.48459891171551    2.53260815957018
H        15.02165912312380   12.64100959005361    2.64834158873501
H        14.89729429294047   14.33181984722407    3.13204398003497

