47
CSD_code = LEKXIJ | q = 0 | S = 0 | Stoichiometry = C15H24F6IrP | MND = 8
Ir        2.73357315581869   13.28873058347992    0.86190831034211
P         3.92766092849947   15.24354484266941    1.29508545033393
F         5.67151939709464   13.07704471602787    0.44267408545260
F         4.67429952536836   11.18335683680681    0.65467919790020
F         5.51902473288834   11.33994548276299   -1.76154547029137
F         3.41363758892348   11.71456559159862   -1.89231637638100
F         4.82896466859307   13.34115709832557   -2.07702218320572
F         2.58590241998478   14.24343979901582   -0.89779362699307
C         0.68339981439913   12.33828325591743    0.75247531162569
C         0.64137344136789   13.41393295488799    1.69709730901634
C         1.52808680080897   13.08659128445358    2.76568532975255
C         2.16879538590131   11.84517736672642    2.45085950012923
C         1.61731234228556   11.37102336140941    1.21148803075955
C        -0.18576012544504   12.21294317467789   -0.45189249971284
H        -1.12636772573813   11.72875934368034   -0.18155617437059
H         0.30296784513508   11.61739486086202   -1.21870768998292
H        -0.40822465783163   13.19131561505023   -0.87008056680649
C        -0.36396040152047   14.52259781397589    1.66717302993025
H        -1.35808851126893   14.12771496434216    1.88504150514353
H        -0.39566854994325   14.98702437169577    0.68338804394644
H        -0.13414336255030   15.28941996923116    2.40275830708208
C         1.62695270242672   13.78403466592768    4.08456788315592
H         0.93934187661367   13.31299226073236    4.78986373279309
H         1.35896097573116   14.83529503449388    4.00796410452551
H         2.63034794615356   13.70881472738223    4.49815584469491
C         3.01571887711396   11.04332330978219    3.38629380050217
H         2.38548753238953   10.37620255150619    3.97752142844363
H         3.56533145185560   11.68740989076086    4.06870425576106
H         3.73202950261509   10.43718587910616    2.83819504816928
C         1.81124627755668   10.00975284593706    0.62641745330672
H         1.00774175867637    9.35134374072540    0.96239162462701
H         2.75933430903632    9.58024911921530    0.93708563258703
H         1.79022989686462   10.04611666848994   -0.46044365385812
C         2.78349162071150   16.63311075091492    1.62585370893776
H         3.34091371192395   17.55877595569810    1.75730266180887
H         2.19553607654286   16.43724326833033    2.51735731357170
H         2.11767657618866   16.72573481167242    0.77151222798608
C         4.93317742407190   15.95414446933144   -0.05097421147488
H         5.20336223975577   16.97754083103454    0.20505559423222
H         4.34280841894940   15.93608848086041   -0.96338936164976
H         5.82973817545080   15.36313375003913   -0.20716482812692
C         5.06636634504672   15.30675504255803    2.72775653587176
H         5.51738258530981   16.29447310527968    2.79947191841193
H         5.84514460409205   14.56175290011214    2.59090960640066
H         4.52377433507501   15.09086337059528    3.64387291587810
C         4.48873976268988   12.43427163562440    0.10703710107578
C         4.55866030438822   12.21702764629045   -1.41681716130273

