37
CSD_code = LEKYOP | q = 1 | S = 0 | Stoichiometry = C10H20ClNS4Tc(1+) | MND = 6
Tc        7.71325691606001   -0.10689095885594   13.80601545369140
Cl        8.80687213890732    1.42184734140693   12.21508582365908
S         9.15687574116805    0.97277904841121   15.48123900579144
S         9.57021484715392   -1.68237187936877   13.51979939777226
S         6.50029439233380   -1.13080415234225   11.93704043120251
S         5.89906870549265    1.55620660303304   13.80235683876853
N         6.94044676662716   -1.05825835230251   14.97425435039788
C        10.76699598417551    0.64305635727207   14.64304809919407
C        10.95125649352056   -0.84346320670964   14.40481770217039
C        10.00064099927303   -1.53773788396163   11.73730440762358
C         8.87731929667726   -2.09057080490142   10.85831762285848
C         7.72363128313214   -1.13052158936662   10.56298400067981
C         5.28314384773858    0.17499242793419   11.48053600278383
C         5.60384034353739    1.57022630831475   11.98132341010369
C         6.70280267954851    3.18760683494133   14.06177166665995
C         7.50793466118003    3.22047158760264   15.36162353088583
C         8.96675425682493    2.78193537547199   15.22548036309427
H        11.55540443685621    1.01388303236948   15.29921387724577
H        10.78416733079804    1.20358128694664   13.70860425164885
H        11.86584456014598   -1.03384158883870   13.84302551816514
H        10.99576271052232   -1.37761106611634   15.35552929947744
H        10.89987036569057   -2.13836201078198   11.60347359439699
H        10.22298487469369   -0.50010046208169   11.49585842169551
H         8.48229490858045   -3.00616543671810   11.30690878317444
H         9.32369256678362   -2.36214576216674    9.89850844813049
H         7.17728476102514   -1.47362953160768    9.68484834239185
H         8.08133970996766   -0.11735083148661   10.38996064756027
H         4.35516104733748   -0.18514930348815   11.92798782675421
H         5.18465731335883    0.16793643570906   10.39492440759511
H         4.75882108616035    2.23429200535509   11.79535816607681
H         6.49219520031685    1.97509308287562   11.49702027641211
H         5.88944908594167    3.91117663563266   14.10670007017283
H         7.32913729022144    3.41114377927303   13.19968168047412
H         7.00907635937641    2.60899850520248   16.11903931324607
H         7.50724200656340    4.25139646920745   15.72209490688814
H         9.57335684717424    3.25274832164855   15.99840560037630
H         9.37150818513478    3.04280338248654   14.24895846078054

