45
CSD_code = LEKZAC | q = 1 | S = 0 | Stoichiometry = C12H24ClNO2S4Tc(1+) | MND = 6
Tc       -0.06668196605610    8.07072245114047    8.29970050318978
Cl        1.02024026592484    7.73327214252714    6.35048173362579
S         0.86231241596616    5.92980534747787    9.20582805447807
S        -2.06686550563131    6.88068976620668    7.40058042809391
S         2.00922975162213    9.27792643064716    9.11371215559448
S        -0.93028525273560   10.22939515787525    7.27779980676156
O        -1.39348841225506    4.55538441153955    8.78495969988542
O         1.36846042403920   11.57387105402435    7.70067289946846
N        -0.83683080037911    8.47214978409261    9.75369608463625
C        -0.77437912650996   11.41974192011802    8.65434930223238
C         0.70650135219695   11.69575287749508    8.93725519253636
C         1.32082694558844   10.73872436174465    9.97533029342518
C         2.39216014499429    8.27596532348082   10.60618400338253
C         3.20092826895343    7.03115568142469   10.25890363568111
C         2.66668759853456    6.24877236132564    9.06477878300519
C         0.72672920787025    4.76249056686423    7.81135889074689
C        -0.75072680120071    4.46621191797254    7.53807508166243
C        -1.38577890896619    5.42957990342913    6.52153145473325
C        -2.45440519710519    7.89553864659579    5.92119204065926
C        -3.28849342006170    9.12153643504688    6.27215560551025
C        -2.74131352930760    9.94145261083635    7.43564680409711
H        -2.31240174870294    4.26990523521482    8.72771655028012
H         2.27122454047383   11.90613506509370    7.75913080481724
H         0.79219281237686   12.72203339817493    9.32577534916568
H        -0.82289728163990    3.44598799810682    7.12719016733812
H        -1.27997488251143   10.99751849133241    9.52067124486834
H        -1.26462226715577   12.33421456938827    8.32272438490372
H         0.57958167887241   10.38517373532705   10.69011893061545
H         2.15277603071142   11.21689646057905   10.49356539741903
H         1.43341263144974    8.01144764550772   11.05455323629538
H         2.96163279703629    8.91058785241306   11.28410548241975
H         3.21033501151363    6.38827398529679   11.14092177684237
H         4.23300655121280    7.31136690687258   10.03558775268845
H         3.15972969319018    5.27865541215715    9.01032834795572
H         2.84102092188393    6.78950299433950    8.13388731304871
H         1.23619817902165    3.85370932341251    8.13002667622684
H         1.22559146066920    5.18533274104251    6.94115875184799
H        -2.22860018537684    4.95470149239883    6.01731081367350
H        -0.66409873079526    5.76952405830907    5.78034929219878
H        -3.00670821378573    7.25817947398640    5.23102188187036
H        -1.50932374199411    8.18659788597759    5.46173619756247
H        -4.30271737299832    8.81205084772805    6.53171782471256
H        -3.34584733355313    9.74487829430149    5.37699391058754
H        -2.89361873200042    9.42865073837643    8.38664358481701
H        -3.22261927337970   10.91823624279839    7.45637187443908

