38
CSD_code = LEKZOQ | q = 0 | S = 0 | Stoichiometry = C16H16AuCl2N3 | MND = 4
Au       -0.01562306966318    0.85197441220728    1.84119987419759
Cl        0.82656412084344    2.60747387341414    0.66674854962356
Cl       -0.73513874718301   -0.96812297896192    3.00297152410705
N         3.59380795568926   -1.06316567978085    2.25575094934956
N         3.99612952969793    0.16403376332409    2.60412838004430
N        -2.03931897760399    1.55338654358302    1.55062247692528
C         2.94610334120626    0.94641147603787    2.52833318028359
C         1.81942609640969    0.21555072075116    2.11402054842852
C         2.27740186680631   -1.07228130027755    1.95026330020449
C         4.50264147996871   -2.12753088383536    2.24761177599165
C         5.86027839201661   -1.84441939142735    2.37037808322613
C         6.78087707818115   -2.87416556415007    2.37092761802123
C         6.35942316113317   -4.18837563122516    2.24730600707744
C         5.00859644186858   -4.46822790877180    2.12911429099296
C         4.07636499775772   -3.44620367931973    2.13107321679759
C        -2.28633606528504    2.84977387007888    1.39275006245795
C        -3.56479548124005    3.35031540851684    1.18802018149698
C        -4.61406743926640    2.43935158056276    1.15095942700712
C        -4.36601294990368    1.08291848902129    1.31707091780711
C        -3.04855743267991    0.69061261002729    1.51546742906045
C        -3.79079275647148    4.81867849054142    1.03450957136122
C        -5.45658891802868    0.06354516938891    1.26711882932602
H         3.01953523531254    1.98960820374186    2.75832581317257
H         1.75103119863477   -1.94994839775217    1.63970182668162
H         6.16547868672839   -0.81497571205197    2.46687108255169
H         7.83260848739364   -2.64973869606537    2.46690762048746
H         7.08017113903196   -4.99196996625652    2.24699014372337
H         4.67405088700750   -5.49094915653977    2.03940365003792
H         3.02666572469853   -3.68125947051651    2.05477947070410
H        -1.42873456388105    3.50605201208053    1.41105462728913
H        -5.62490134060234    2.78814045780299    0.99198232346928
H        -2.79709149178345   -0.34860200574297    1.66911722722680
H        -2.91456309283156    5.29936794712472    0.60721881259701
H        -4.65313131021520    5.01339926706362    0.40126661391813
H        -3.97975885837099    5.26654491506596    2.01053572147063
H        -5.48794226553070   -0.39563261962513    0.27862529140124
H        -5.27628018281831   -0.72422422143242    1.99466418289115
H        -6.42412087700810    0.51915405339839    1.46250939858995

