49
CSD_code = LEKZOR | q = 0 | S = 0 | Stoichiometry = C20H24Cl2N2Zn | MND = 4
C        -0.40269237230680    1.46626086402052    0.32935564212690
C        -0.53213489265201    0.02319838246110    0.58691467317081
C        -1.42391497930024   -0.79030553104536    1.24995642832803
H        -2.27211638581284   -0.40752429550765    1.79312276670816
C        -1.22820084616012   -2.18240444958323    1.24158694466024
H        -1.94227197518439   -2.79779801642035    1.76847344467398
C        -0.18495036859620   -2.77574874025918    0.57889408698333
H        -0.07993555141940   -3.85026083509588    0.56805310005363
C         0.77053018273188   -1.97844955629108   -0.08559339952795
C         1.89449200618606   -2.44320581180482   -0.80033896364421
H         2.07528542545346   -3.50511964862967   -0.87366186954088
C         2.73784591450677   -1.54749329592742   -1.40537008644851
H         3.58229519369934   -1.91133155540704   -1.97170704994391
C         2.56137021773671   -0.15646905410140   -1.30406495762036
H         3.27272407992177    0.47625795695185   -1.80870611056800
C         1.49549343735877    0.34075112388890   -0.58749956070781
C         0.58493465845732   -0.58943258345956   -0.03056636163056
C         0.99583390455918    1.67488681994737   -0.21843351939713
C        -2.56571581283094    2.53285446912502    0.78590549056268
C        -3.08078079373101    3.93615750403312    0.45038166020720
H        -2.55119272183561    4.68887429253289    1.03210368248293
H        -4.13967429317498    4.00812291480246    0.68682761802971
H        -2.94727880456258    4.14846737094318   -0.60818246246676
C        -3.41934350144683    1.53042602444107   -0.00468728295033
H        -3.42726920476552    1.82012771034785   -1.05346573106837
H        -4.44036010138361    1.55512066667713    0.36684430140969
H        -3.05086030680476    0.51322862936963    0.05759968604974
C        -2.65107359549356    2.34440167440910    2.30714551185151
H        -2.21708642958429    1.40408243233937    2.63098891875890
H        -3.68969793407552    2.38694903367403    2.62415366126615
H        -2.10226559165634    3.14779867778942    2.79445356439117
C         2.79680048608913    3.30334150190251   -0.57682466411127
C         2.93329138732214    4.76213827386633   -0.12910421997921
H         2.21789543549653    5.39358148900953   -0.65304913606567
H         3.93345962058864    5.12550884435290   -0.35274137105681
H         2.76504038665390    4.84948080283790    0.94219633516909
C         2.89998258592073    3.26250400281161   -2.10817386966536
H         2.72083871175689    2.26925597654267   -2.50685825413979
H         3.88505025693101    3.60039144239009   -2.41877939803219
H         2.15117352436526    3.92956778759251   -2.53063144993589
C         3.89748908130407    2.50208107027117    0.13385500014949
H         3.85396174215971    2.70845206318911    1.20127243142397
H         4.86903953589999    2.81659896782768   -0.23810615873970
H         3.80249087110660    1.43128599111541   -0.00254017299002
N        -1.17313182072931    2.47234693699504    0.38312573502074
N         1.47533982961284    2.84866895611564   -0.18658027192349
Cl       -0.39770385868450    5.20581377623545   -1.81006245482136
Cl        0.04778168094885    5.05165227249010    2.25216953215817
Zn       -0.06068801457544    4.26790667023365    0.17564856134124

