90
CSD_code = LELCIR | q = 0 | S = 0 | Stoichiometry = C48H30F8NiOP2 | MND = 4
Ni       24.95938652843590    7.75469385982392   11.78078044312141
P        26.76383639378053    7.39652582539572   10.45364085009652
P        23.59986841472584    9.25326430481140   10.86444145425482
F        26.37850605622613    8.71315991644069   13.23980401602900
F        26.35801321616705    4.19188373811930   14.61096047111683
F        28.62222663488082    9.13741318456177   14.73388853246523
O        24.19078928537920    6.81572708450123    9.51945067966830
F        24.05939534815672    7.99448544877562   14.27643508277973
F        25.92860667232820    4.22073741232527   12.05755255518206
F        28.62420952521491    4.61788300503658   16.01513122078956
C        26.33581485734282    6.43684611584995   13.85047365615919
F        21.60952443360398    7.22365938357504   13.45786853921921
C        26.38005779810652    5.87316944643616    9.52181217761582
C        26.92034998893319    5.40548263856122   14.58827833181851
C        27.18138120888332    8.52987797515799    9.07906373405522
C        28.75269008605644    5.91672725242034   11.78157005934563
H        28.06388323793826    5.08667638486932   11.75796433100679
C        25.02395030420977    5.74845279886930    9.20430156554516
C        26.92832015290375    7.69806367393425   13.94737111108501
C        28.42489783186639    7.11658575325580   11.15365630617299
C        27.78800015964889    8.08562524790780    7.91035964927489
H        28.02019918866426    7.03742067160580    7.78651213977846
C        26.88776665826819    9.87958839855981    9.22953581609003
H        26.40748886020733   10.21393959515907   10.14022841841786
C        27.24288625387248    4.83702428067158    9.19164514619159
H        28.29661807241818    4.92119293929321    9.41354358922090
C        28.07282770071756    7.91767465766106   14.69372669612220
C        29.96300873316759    5.77827427844664   12.43597640726335
H        30.21120263793279    4.83810330767387   12.90670012176513
C        28.07298404024670    5.62859933410440   15.33198147093364
C        24.15629699070415    7.82845345044884    8.58920740666126
F        23.45360842641259    3.52816393184894   11.21380890950761
C        30.52117137930149    8.04435856955565   11.89349970702913
H        31.20429676687763    8.87920419188719   11.94476924136715
C        27.19309408289046   10.77799964802761    8.22439036486046
H        26.95987623634162   11.82504185420303    8.34975413787535
C        24.52702229836596    4.60087782954987    8.61250955895095
H        23.47132394001054    4.52049287872870    8.40188400073682
C        29.31573245781984    8.18448404987364   11.23105929646306
H        29.05945866043134    9.12745567867414   10.76885140360020
C        27.79095269930412   10.33027188526411    7.05860579063127
H        28.02590821110183   11.02790190226040    6.26845471812622
C        25.12355418395970    6.24281077880848   13.03127429649544
C        30.85004599070068    6.84055594877512   12.49449782824714
H        31.79227613701663    6.73150471656418   13.01052925280971
C        21.79736647581864    8.98793105644612   10.99790264463173
C        28.66329050657292    6.87801929366351   15.38942888381066
H        29.55780396208555    7.03752140951665   15.96738672679263
C        25.39833972333783    3.56606631805299    8.31543127349408
H        25.01797463419141    2.66091161456102    7.86806561840586
C        24.76652585233837   11.54104736124008   11.86876807108220
H        25.48745111649472   10.84147174300245   12.27095328324599
C        23.81617080203319    9.10489024351786    9.05347385694250
C        28.08755822513890    8.98572525776612    6.90447852420600
H        28.55552091423062    8.63710534479216    5.99535866809789
C        24.88513961158819    5.03290727017137   12.32681155968613
C        26.75060857194225    3.69367787383034    8.58565892847666
H        27.42665397551172    2.88984761482466    8.33594739602874
C        23.96865735988089    7.07026349580243   13.28096976019265
C        23.69259142243710   11.05300445310434   11.13371193623431
C        24.43851448149083    7.62325262553713    7.24602835156550
H        24.71318748334020    6.63944487280960    6.89515663494955
C        24.04873917371994    9.95019063503629    6.81095233754731
H        24.01483196789643   10.77928643525758    6.12093734659623
C        23.77541901166646   10.15674440585410    8.15157320255517
H        23.55014972866903   11.15140814564162    8.50348050069607
C        21.14029218289121    8.07037850548140   10.18604881663375
H        21.68852304806617    7.53550693150808    9.42456123028694
C        22.68210109321894    6.56986294108048   12.97848847404109
C        24.89957737713959   12.89872992686979   12.10128144159153
H        25.73639865489374   13.26890060263756   12.67504824144301
C        22.50178755961887    5.42151624765424   12.25530507002770
H        21.51545895513798    5.08336488698125   11.98957712502101
C        23.62813410011979    4.66888985622781   11.91042045721744
C        24.38018983348569    8.68520992938047    6.36147152890379
H        24.60327774043300    8.51858496529805    5.31865195773510
C        22.73372206347422   11.94177284979005   10.65375259680253
H        21.87379031199624   11.56790913851414   10.11538970146416
C        21.08653892923802    9.64505871021067   11.99849597904999
H        21.60168021341194   10.32872961290622   12.65894717009934
C        22.86961143423546   13.29784561459969   10.88602698256703
H        22.12409609517334   13.98394278188609   10.51042499602968
C        19.78694666776104    7.83841526229426   10.35339568932685
H        19.28247136807645    7.12563347847939    9.71654526089964
C        23.95397505232643   13.77891251626906   11.60383349728080
H        24.05308200356896   14.83938729597694   11.78354362642237
C        19.73385157065000    9.41373790621715   12.15872112391136
H        19.18988202358718    9.92930910738615   12.93616996513535
C        19.08008791584903    8.51266314835465   11.33449449792186
H        18.02362006344422    8.32888508579405   11.46337857873905

