26
CSD_code = LELGUF | q = 0 | S = 0 | Stoichiometry = C5H9B7O4Ru | MND = 8
Ru        7.56554804864848    8.62578912258632    4.49110580591528
C         5.95382508763503    9.93722164719134    4.58819583832486
O         6.25472316033171   11.30286120021402    4.62052457122720
H         5.43998320193632   11.82027737078154    4.63752464230107
B         5.70388687226601    8.97846459258625    5.91461399879806
H         5.77522401247673    9.51110219094185    6.96421090233623
B         4.41338803899982    9.42589211471818    4.62792997226388
H         3.61914973742413   10.29300230301686    4.68234801935426
B         5.60828677243153    9.06131977514177    3.22704807633419
H         5.60664139490051    9.65757525864603    2.20961222620475
B         6.05165645017853    7.27821152268950    5.56814399109559
H         6.43000283374637    6.45299282110638    6.32363235629666
B         4.31729062627386    7.90013863419031    5.50548979456953
H         3.45706216436780    7.61131583734714    6.24611025730404
B         4.25224026082407    7.95746299431525    3.66578567697089
H         3.34129796119893    7.71322872461826    2.97112277889983
B         5.97693251188194    7.34340543229609    3.44339785283550
H         6.29973246147626    6.56758927415630    2.61344166601319
C         4.93132411686639    6.75207218185647    4.52630206929616
H         4.58091230586161    5.73103004050968    4.50711899703373
C         8.56734503369055    9.48937992523526    5.81503085358037
O         9.15147687719936   10.01741676341213    6.64341367285259
C         8.47293333271388    9.54897494251085    3.14027994498107
O         8.99823975985496   10.10974660906771    2.29396642097999
C         8.57590242604311    7.05207347406054    4.41727311651442
O         9.19019455076997    6.08425524680498    4.37267649771427

