53
CSD_code = LELJAO | q = 0 | S = 0 | Stoichiometry = C20H30N2Zn | MND = 3
C         8.57378995134088    6.43830253729937    6.53044682189601
C         8.36818404639588    6.53150634282633    7.92258708308062
H         8.31407228872572    7.54756733969918    8.29067515509283
C         8.18747421951396    5.57500289340990    8.89812496285846
H         8.00397241847839    5.96253822180864    9.89418602815537
C         8.28333119039842    4.19762880232689    8.79612507183320
H         8.22781777292180    3.62978917693582    9.71523337135864
C         8.44593393645496    3.48203328311315    7.62135009981697
H         8.56953653194177    2.41078328618841    7.73686463555581
C         8.38491671908072    3.92490058921097    6.31813401030689
H         8.44996296485270    3.12959151903695    5.58644544973726
C         8.28012085883926    5.21320899401776    5.75580848622867
C         9.45250406557960    8.69434928170667    6.38980963609424
H         9.85611069836787    8.51120223117850    7.39619242714730
C         8.34320443052626    9.75092733061866    6.46647595720916
H         7.52867283219621    9.38700298143032    7.09704692452545
H         7.94145461644425    9.89852808201922    5.45944603624183
C         8.88085585733309   11.07076264927386    7.00933687231570
H         8.07713836393108   11.80940160860295    7.04296486040057
H         9.24177245222318   10.92330308635882    8.03044292542201
C        10.02400726024512   11.58141555098734    6.13833742934188
H         9.64927966743539   11.78472521852351    5.13277393472330
H        10.41488769261771   12.51573503880013    6.54676401025995
C        11.13588590230452   10.53997307779912    6.06229561826207
H        11.55110819172868   10.37955320406921    7.06038503036063
H        11.94194707956150   10.90022900183665    5.41989228489662
C        10.59675933271841    9.22085860817347    5.51900043026002
H        10.22406203006069    9.36352173211324    4.50126380006825
H        11.39150388205458    8.47275248388771    5.48474504699083
C         7.60168372654663    4.33198940178507    3.60747974764369
H         8.28702370179376    3.47407664495235    3.69563381793733
C         6.17659223403683    3.86944427822904    3.94335415144736
H         5.50506867133470    4.72572342012109    3.84232475639120
H         6.13305645552088    3.53340230946691    4.98130834043401
C         5.73654696523346    2.75004066700846    3.00591249372396
H         6.38810990458525    1.88364422810701    3.14498177986359
H         4.71787104548860    2.44333333682826    3.25247133737101
C         5.80640872261776    3.20732264164131    1.55220025586763
H         5.51631773988052    2.38905023751142    0.88976860241506
H         5.10373264266648    4.02918078545491    1.39808766780330
C         7.21670925417167    3.67925002039839    1.21149873519335
H         7.25273731128847    4.03243485609853    0.17905996412212
H         7.91192828273922    2.84089208549616    1.30184321361939
C         7.64466100560125    4.80010239715711    2.15407012509694
H         8.65839089471957    5.13131525367651    1.91242710911468
H         6.96979299530035    5.65117597127898    2.03858725760945
C         8.08443799347984    8.51876077875491    2.32927972691238
H         7.04421507883745    8.54067019477926    2.01642413895460
H         8.65926796716738    8.19994666918907    1.46450487299222
H         8.36877860264362    9.54696987384429    2.52958914998470
N         8.95618450523484    7.47177734961898    5.80388434386098
N         8.01573550646816    5.41135318144822    4.47577591507838
Zn        8.36368153921674    7.30184926410630    3.91447809693941

