107
CSD_code = LELLUK | q = 0 | S = 0 | Stoichiometry = C38H54Cl2O8P4Ru | MND = 6
Ru        4.49593651479318    6.10118116396210    2.55125193133867
Cl        6.72037661290528    5.80589864986126    3.42103427805334
Cl        4.78483015379557    4.29826119565508    0.97613539550878
P         2.37777101710458    6.08073868053259    1.69285921767338
P         5.40263911440021    7.63097665364436    1.07862268849486
P         4.08793468677912    4.59760286835302    4.23433968178279
P         4.03691749344471    7.81468886196603    3.93165770101909
O         2.21706895187199    6.67122683097369    0.19309839286300
O         4.43499905299586    8.50161074306069    0.10481864064395
O         2.99881957067461    7.30336010333322    5.05982771008841
O         5.06308754964093    8.74093352720690    4.75866721364473
O         3.29533112336943    8.98496729663329    3.12712926099718
O         2.53475066417479    4.32484554204559    4.55111290261661
O         4.68904404984535    5.13961134646413    5.64453778605985
O         4.58461521495754    3.07266819055837    4.19109709964263
C         1.43044436085109    4.51079837858553    1.49599772064331
C         0.16712335324189    4.62862917361577    0.92056869029279
H        -0.19455297960013    5.60716602156914    0.63576285397513
C        -0.61409203810008    3.50941712548393    0.70853227079376
H        -1.59287141593535    3.61191001454950    0.26185702740232
C        -0.14202843421300    2.25649555000390    1.06763403135827
H        -0.75232345648582    1.38019096865148    0.90252150911301
C         1.11587642373102    2.13270094167665    1.62991263737903
H         1.49404011711978    1.15742042506867    1.90118441099613
C         1.90093950418599    3.25446377603340    1.84172300193541
H         2.88537737505626    3.14262446110452    2.26596210566048
C         1.04051049122419    7.06837210159987    2.43628518382855
C         0.51003967937546    8.19056714677992    1.81609646568126
H         0.91441252603665    8.51808366529753    0.87097471100659
C        -0.53551150285428    8.88112253008095    2.40609878084996
H        -0.96125963443707    9.74280050345391    1.90936793217186
C        -1.04404371533206    8.46913839847500    3.62590640344445
H        -1.85686529834591    9.01323529258051    4.08592821581188
C        -0.51016097545562    7.35330222443196    4.25169570996276
H        -0.90987632048748    7.02702523285858    5.20208972540147
C         0.52031449886776    6.65031939255254    3.65597812221634
H         0.94096512961330    5.77740645224853    4.12933248923152
C         6.76763836345202    7.16244589422899   -0.05563573706014
C         7.46096525420609    5.96663368286558    0.05527100441369
H         7.19265835837661    5.25367334253129    0.81972451688819
C         8.50242439345523    5.68989360544170   -0.81449409315455
H         9.03815500263287    4.75670890591732   -0.72419854329599
C         8.85605148868838    6.60144617018777   -1.79324770829469
H         9.66640042939474    6.38136699430725   -2.47329601012619
C         8.17534512078939    7.80501986416932   -1.89673411816468
H         8.45771727891971    8.52498973092579   -2.65193639244766
C         7.13963277282727    8.08814021107849   -1.02833016768973
H         6.62066353952989    9.03580183113127   -1.08982972311832
C         6.23607713848438    9.06339603694463    1.84298026746141
C         7.43330520854485    8.85928733934997    2.52171912417234
H         7.84803225447752    7.86383512994542    2.58771061285151
C         8.08824164188539    9.92364711838864    3.11371883695477
H         9.01207762455443    9.75297532357247    3.64770539956619
C         7.56860959104485   11.20386369364038    3.01683395320456
H         8.08053808607686   12.03522989119334    3.48086485110920
C         6.39756729867744   11.41656416543898    2.30999807097614
H         5.99684575350958   12.41650880865687    2.21405579245078
C         5.73553957181531   10.35240220064404    1.72327602784101
H         4.82877462638804   10.51640957494914    1.16476507190479
C         3.20526817942415    6.59677603295415   -0.81368006351185
H         2.71861420264089    6.24534885958036   -1.72960328887835
H         4.00672562297697    5.89474586331089   -0.54723402351181
C         3.80574635710104    7.97635132300387   -1.04485681132649
H         4.52408638760649    7.91274356097071   -1.87209112090833
H         3.01750374580072    8.69271561729820   -1.30075738309600
C         2.53444198833970    8.07126690739375    6.16672522172266
H         1.53434208291171    8.45012278320296    5.92229075187229
H         3.20474619722850    8.91995281202058    6.34560240704669
C         2.47230520307802    7.18558504578595    7.40065994922570
H         1.82263085942330    6.33791618506643    7.20703909318215
H         2.08754180621433    7.75171769348608    8.24571037068173
H         3.46439342670449    6.81251499544758    7.63899930942741
C         6.03026869587293    8.18710057323492    5.65450284852751
H         5.58187753858777    7.35380393756916    6.20199424985147
H         6.87440060830219    7.80822623163887    5.07275702680710
C         6.48412899310209    9.29185848423331    6.59218645141093
H         6.88521341897392   10.11926688657794    6.01204905531483
H         7.25813140114282    8.91421931161214    7.25438204006511
H         5.65221200724707    9.65702574465718    7.19073178342499
C         3.11125169167713   10.31939403368074    3.61374705306450
H         4.09319273382423   10.78247802051507    3.74779927886815
H         2.59598491286995   10.30099783819704    4.57835975108661
C         2.28277790195169   11.09548377580255    2.60488692054420
H         2.72876131852154   11.01655528593352    1.61834207570413
H         2.24125819818664   12.14194486656854    2.89678601155958
H         1.27550297916699   10.69314161134141    2.56094752896543
C         1.95762270119931    3.16488149265438    5.14480823688828
H         2.67278990078461    2.33973421657780    5.12658541713474
H         1.10062616539209    2.89852696807501    4.51550779460223
C         1.50043940245051    3.44160221792987    6.56878130697188
H         2.34489381602214    3.73530326132847    7.18692110823860
H         1.04769652341207    2.54590361276298    6.98722201735501
H         0.76537639859318    4.24285085476458    6.57506189707429
C         5.24586101674288    4.32100677029897    6.66610018903453
H         5.03362276105915    3.26616169898314    6.46213724999010
H         4.74805890749467    4.59713295229393    7.60415578560327
C         6.74860135153070    4.54040336364296    6.77472519890782
H         7.20393311271013    4.43865555957221    5.79265122249430
H         7.18150166254667    3.81136690899450    7.45522847638523
H         6.96349790452700    5.54133508365558    7.13982455533804
C         5.79957535419305    2.57104461111602    3.62464445009824
H         6.45246276701656    2.28155204896878    4.45553252931975
H         6.29879650505358    3.34587114301345    3.03910239658938
C         5.48157281464124    1.37387612949584    2.74615933651363
H         4.89561854101723    0.64182327436005    3.29796726315644
H         6.40971420936229    0.91510344655924    2.41761387650764
H         4.92318946886120    1.69680915739792    1.87147226868730

