110
CSD_code = LELNUM | q = 0 | S = 0 | Stoichiometry = C57H45N3OP2RuS | MND = 6
Ru        4.22788322558842   10.35286603272993    1.03347893670111
S         2.49676683565813    9.97280956209498   -0.78973277945852
P         4.75890655815366    8.15370703841920    0.53782783069605
P         3.59388660609913   12.57330711417679    1.21436753042491
O         2.95551280103592    9.54834586167278    3.61455718505883
N         4.90904085849895   10.88218764119468   -0.87950861224597
N         3.78425401673759   10.69486249146027   -2.96414018518180
N         4.77124827306293   11.31315335323665   -4.92427476665569
H         3.89361761562842   11.08249673365808   -5.35657918941910
H         5.42016416315769   11.89578723123801   -5.42154992276428
C         3.43690884312702    9.86320303635384    2.61421288564280
C         6.00811713230993   10.63598070552639    2.09216761149365
C         6.06545811266841   11.02926682621380    3.38259281133330
H         5.12882520957163   11.28456582284105    3.87522158339903
C         7.22868996714473   11.23409797959251    4.23050961814834
C         7.08160697355565   12.03189480969136    5.37060136886659
H         6.11515761946115   12.46685403944112    5.58511785546305
C         8.14717619052490   12.27840569231139    6.21180697995284
H         8.01214456132483   12.90625147146884    7.08147346981075
C         9.38697670346164   11.71841945562677    5.94814727739080
H        10.22235684122339   11.90896088970414    6.60623213429038
C         9.54167426696379   10.90183632338093    4.83986015539503
H        10.50099984718257   10.44620446825488    4.63706031308622
C         8.47943967540215   10.66126451371571    3.99038512587645
H         8.60757924443976   10.00950817510669    3.14183151290030
C         7.13520166665580   10.32699236064099    1.33383465950023
C         8.07513914758979   10.05492188165079    0.60831269005360
C         9.20873166185830    9.65903694046455   -0.13078068113190
C        10.16604117595791    8.83567802175147    0.47137934103997
H        10.02388578681836    8.52747292426209    1.49717909353112
C        11.27061686844790    8.41745755816134   -0.24181154900595
H        12.00365605366338    7.77962112246366    0.23123447500041
C        11.44519535532615    8.81218184579538   -1.55943442718795
H        12.31104992281522    8.48248641026436   -2.11459965413479
C        10.50503867050733    9.63279903130178   -2.16149556701193
H        10.63969148088101    9.94396104229649   -3.18819850344078
C         9.39424512028673   10.05543711080585   -1.45849928139591
H         8.66103301525708   10.69249425278399   -1.93328768899552
C         3.84282760097832   10.55492116034348   -1.64902122131467
C         5.92857528737066   11.47963095985018   -1.49047537927944
H         6.75356510971857   11.78866904952610   -0.85922867743690
C         5.94328490770388   11.69362753176066   -2.84656271392418
H         6.76677796537190   12.18824359988308   -3.33415940535356
C         4.82631422538254   11.23962717372175   -3.57568405861091
C         6.20384647337303    7.42031360622129    1.37732987073329
C         6.25199916210967    7.61951190293152    2.75528104528220
H         5.45658265437639    8.17814374932754    3.23404599553493
C         7.30696421928661    7.12531003167868    3.49670477894521
H         7.34532819394237    7.29891692260984    4.56188800962347
C         8.31927043576433    6.41659305593732    2.86859374813451
H         9.15126612179440    6.03713201673317    3.44396972332065
C         8.26255395162704    6.19275408079501    1.50356145323877
H         9.04570177846307    5.63238438409765    1.01300962035394
C         7.20884854921748    6.69001803613304    0.75580254605604
H         7.17706567539510    6.50810708494088   -0.30948942754386
C         5.05081830679552    7.83702836423869   -1.23072994818065
C         6.22618337112496    8.31196561965756   -1.80891170856873
H         6.98010147682331    8.76202436685787   -1.17830992568046
C         6.41645847237153    8.22300054225232   -3.17460176014151
H         7.33268832493140    8.59379417059308   -3.61234143506684
C         5.42898899648673    7.67434532595391   -3.97676198221082
H         5.57156560421417    7.61830025315926   -5.04613929051289
C         4.25466896655096    7.21010849273948   -3.40830084002425
H         3.47854191330592    6.79414203453683   -4.03365409950690
C         4.06004921002984    7.29155577878503   -2.04140257097976
H         3.13182298483779    6.95232353256750   -1.60278765726714
C         3.51690973103841    6.87752937738432    0.93589644659477
C         3.87794217506412    5.53295837727100    0.87915947471344
H         4.88834945840998    5.25969933052980    0.60645892459280
C         2.94814989937158    4.55367645058589    1.17063123330855
H         3.23268672547578    3.51233221939036    1.12524063226790
C         1.65369081660688    4.90520678167860    1.52122979265623
H         0.92997296698113    4.13690274495581    1.75090197126468
C         1.28948697902011    6.23961240104248    1.57311101299949
H         0.28024939221068    6.51612414832341    1.84013459024005
C         2.21696329972326    7.22428417484272    1.28085456290512
H         1.92918748417680    8.26714633195988    1.29985731348049
C         1.85969703963339   12.93624994973357    1.64076600228848
C         0.97377925104438   11.90883799712768    1.93336980660282
H         1.32405534193431   10.88500935075828    1.91226690553017
C        -0.35014329172380   12.19309686262610    2.22220724318862
H        -1.03520459003010   11.38932831605612    2.44757155883022
C        -0.79462179234803   13.50370256439703    2.21541368464364
H        -1.82733276718413   13.72640270984024    2.44044570343064
C         0.08302776129286   14.53330980905663    1.90881988634056
H        -0.26655973068106   15.55557173156969    1.89318739339583
C         1.40374117984897   14.25406397976794    1.61749163263206
H         2.08962898943611   15.05320802514151    1.36711266459893
C         3.65704391959576   13.52584025126162   -0.35224290753682
C         2.63130478729273   13.28280006209283   -1.26648010792069
H         1.81870097085861   12.62042486021708   -0.99831124854118
C         2.64927161805668   13.87427077236144   -2.51468603217987
H         1.85378706019994   13.66601774493027   -3.21479872981870
C         3.68512630225118   14.72449978731164   -2.86544407301009
H         3.70249972401312   15.18525490351154   -3.84267398098885
C         4.69203341535364   14.99115249941537   -1.95405607152325
H         5.49405100818806   15.66700739784639   -2.21508065825251
C         4.68400382487680   14.39354128368494   -0.70533991545758
H         5.47367775257809   14.62006935265262   -0.00459561253449
C         4.53614630174926   13.62176404001333    2.37118100233383
C         3.96685686041643   14.24182123164485    3.47690704288879
H         2.90671562375430   14.15063834139064    3.66523830616647
C         4.75886812771722   14.97104270122781    4.34776539990056
H         4.30680962015691   15.45327253637418    5.20259104142187
C         6.12275037692527   15.07471912700512    4.13484483495828
H         6.73690902570790   15.64036094702067    4.81960847910936
C         6.70333188342470   14.42978562923209    3.05476887660943
H         7.77138271048678   14.48112548178136    2.90247167765166
C         5.91720774603203   13.69822748733763    2.18572355123088
H         6.37598701342862   13.15843932796340    1.36715636219391

