78
CSD_code = LELNOI | q = 0 | S = 0 | Stoichiometry = C36H33ClCuN7 | MND = 5
Cu       -0.00021150221650    7.67515552874182   16.18028208396355
Cl       -0.00013544412027    7.67521811997345   13.72925342015596
N        -0.00015062124192    7.67521924853707   18.43813011846667
N         1.37289979488003    6.08409773385525   16.73981107935648
N         1.20816833173215    5.02204667064357   14.72678248092886
H         0.72599538538552    5.87972016912827   14.43781904818907
C         1.35267228982067    7.33324323610330   18.81085477656723
H         1.43870249850761    7.07273789564706   19.88011778760092
H         1.98458500781359    8.20728068664664   18.62513502053520
C         1.87050527546734    6.19625757855544   17.96786744170739
C         2.82731231894967    5.33072798442882   18.46705793689065
H         3.20055419204563    5.44645621553489   19.47213458383981
C         3.31314760350430    4.32896847466561   17.63100599846593
H         4.09150166300689    3.66363511008291   17.97481330530370
C         2.79661369031820    4.19677927310515   16.36596216369495
H         3.17493210415639    3.45343852114270   15.68452507478285
C         1.78661907788391    5.08469543013549   15.94414013053934
C         1.29229654383140    4.02343383761270   13.76346883836784
C         1.34084243112516    2.66801910317578   14.08551669791084
H         1.30212429417515    2.35675613515379   15.11866009103036
C         1.39814729420420    1.71860672330155   13.08162446626200
H         1.43752079456604    0.67097092074128   13.34344944609143
C         1.39204704169249    2.09942699337581   11.75080777716819
H         1.43979356634897    1.35280330128783   10.97240096758746
C         1.30472429578671    3.44387084825112   11.42580551192240
H         1.27949888278884    3.74843381592237   10.38985736561740
C         1.25188550401004    4.39954147751571   12.42023753576624
H         1.17490438109312    5.44735435657390   12.17338040251956
N         0.69151498619629    9.65968878913629   16.73972244369735
N         1.69400074196023   10.04776204500301   14.72680977799773
H         1.19211731451019    9.20149295287297   14.43777738872837
C        -0.38038875692080    9.01783850705777   18.81071878910367
H        -0.19786493807324    9.22268085178061   19.87997561479293
H        -1.45326622070249    9.12810016233238   18.62490985186439
C         0.34548952878407   10.03467723215132   17.96771350423496
C         0.61674583077340   11.29606837088204   18.46683885789055
H         0.32982047243935   11.56155100904909   19.47186327423110
C         1.24159155137582   12.21755476977593   17.63079146758384
H         1.42868441492403   13.22430198715779   17.97454166042392
C         1.61445962999071   11.83616708756878   16.36582990613672
H         2.06923589280919   12.53535188687522   15.68439288308019
C         1.35038426965766   10.51753068607287   15.94407330862265
C         2.51699722127035   10.61977480407640   13.76361349745831
C         3.66662127956838   11.33933120388403   14.08584392246384
H         3.95536093799430   11.46142579526397   15.11903852428633
C         4.46042258210390   11.86355139660298   13.08208127406909
H         5.34800987533861   12.42140662052883   13.34405228292836
C         4.13384610680311   11.66793700085368   11.75121021157462
H         4.75673128750573   12.08253554998565   10.97290283990760
C         3.01307747705633   10.92032186418352   11.42602117231830
H         2.76216259113742   10.74611877388889   10.39003349440988
C         2.21163286852175   10.39682288384066   12.42032744931879
H         1.34271445222505    9.80627776566984   12.17333110468857
N        -2.06470995510061    7.28178264205526   16.73988065790682
N        -2.90216073107761    7.95553533479379   14.72689630416276
H        -1.91835577497818    7.94417579372869   14.43780983767191
C        -0.97274680189446    6.67465579618111   18.81087615221348
H        -1.24132634341617    6.73043726936518   19.88013885334619
H        -0.53181241686529    5.69034568442303   18.62515194525003
C        -2.21636252304776    6.79485183325588   17.96797991133843
C        -3.44433938786928    6.39907292695754   18.46722903009905
H        -3.53067675047341    6.01777689765600   19.47223725666898
C        -4.55485458467501    6.47928415112638   17.63124326052948
H        -5.52016996822943    6.13765152897761   17.97497935210887
C        -4.41107066073232    6.99259322155837   16.36614077994798
H        -5.24401949907215    7.03672273052622   15.68476124811405
C        -3.13708985561910    7.42314184527379   15.94422571844413
C        -3.80914784150111    8.38218443627458   13.76373804472925
C        -5.00719179735136    9.01783601765091   14.08598760101033
H        -5.25714954248065    9.20718490424549   15.11916265765982
C        -5.85821872660309    9.44290369868568   13.08222358537646
H        -6.78489201114739    9.93312315568718   13.34418183030682
C        -5.52553319578863    9.25787467653812   11.75135966814473
H        -6.19596274244118    9.59012919108783   10.97302361213809
C        -4.31759114042484    8.66130154694206   11.42616058196079
H        -4.04137570231371    8.53080670104601   10.39017335618866
C        -3.46339798855886    8.22918654331123   12.42046803998640
H        -2.51764215110383    7.77167608630783   12.17345466165976

