41
CSD_code = LELPOI | q = 0 | S = 0 | Stoichiometry = C12H14HgN12S2 | MND = 4
Hg       -1.55503371879198    6.01937466225583    4.36049116346652
S        -1.92136704939226    6.55245146877844    2.00529968461863
N         0.08830154966169    2.07476779740221    6.03459633232707
N        -0.39128259368118    4.17033417314938    3.26955180006224
N        -0.78106875786450    4.03920590090781    1.96214310653269
N        -1.69114214296135    4.84593656948175    0.05769990313828
H        -1.18356041159586    4.14158308855604   -0.45244683191557
H        -1.98166060217457    5.67103392160481   -0.44009987424023
N        -0.19354800953469    1.83414772919834    3.30013483197523
H        -0.74457706467793    1.78147484295727    2.45715218079648
H        -0.16751025388982    1.04165447850014    3.91988924482870
N         1.52617654904223    4.23335255320792    7.00855033047334
C         0.47997707274044    2.13233382363673    7.29679003798773
H         0.22598085137904    1.28068373212945    7.91362924610633
C         1.17642719416586    3.22528378847306    7.79383347911984
H         1.47858407696652    3.29449406581226    8.82857429531350
C         1.13836898623703    4.18895490605004    5.74960008674228
H         1.45903938126665    5.00112630140724    5.10732184126555
C         0.38492051826227    3.11656795595479    5.25251579559485
C        -0.09906882322868    3.05640166007797    3.87131268315922
C        -1.37032891367316    5.01329745616460    1.36676974710396
S        -1.19079925245993    6.55287410935512    6.71454736857740
N        -3.20045287513311    2.07577965268871    2.68416548434002
N        -2.72096948782928    4.17110314750606    5.44964285943887
N        -2.33191010809076    4.04005195415237    6.75726298026426
N        -1.42357449872939    4.84705222938110    8.66249079018759
H        -1.93222854037519    4.14317210259017    9.17226032963438
H        -1.13351680835631    5.67228314416962    9.16034221912988
N        -2.91786133596771    1.83480800391192    5.41850115762927
H        -2.36679213297868    1.78196983436993    6.26144111620767
H        -2.94340459804978    1.04254192363284    4.79842430799911
N        -4.64045438892608    4.23356860516387    1.71143796731318
C        -3.59322595891812    2.13316949548927    1.42229281558776
H        -3.33901536366647    1.28177268160537    0.80516922599675
C        -4.29109702751128    3.22551247297968    0.92595021996306
H        -4.59468475682267    3.29429414863094   -0.10841020143760
C        -4.25128857534851    4.18951431757239    2.96997858527526
H        -4.57155862668747    5.00163441625921    3.61252028992926
C        -3.49711670703237    3.11735067643077    3.46650848570060
C        -3.01269865295718    3.05716343859788    4.84760265532147
C        -1.74297814241336    5.01412276982202    7.35306225848488

