137
CSD_code = LELXUX | q = 0 | S = 0 | Stoichiometry = C38H78ClO12Si7Ta | MND = 9
C        -2.80630215248273   15.95214970891802    6.98769669940676
C        -2.02997511514191   14.84619942722010    6.87044386918758
C        -2.65436096534907   13.72817916320689    7.63995348697057
C        -3.82419219953667   14.37683560257545    8.29952229919232
C        -3.91769247600656   15.66136414134507    7.87912643269103
C        -2.61823673446161   17.28746287919858    6.34724784038698
H        -3.53891282028414   17.59798336108456    5.85718918987834
H        -1.82258439189056   17.25638658286635    5.60926057621795
H        -2.36529009703466   18.03848285417147    7.09591036532003
C        -0.72608510146220   14.68316143193562    6.15174827768207
H         0.10751063945153   14.82304792178609    6.84280949456691
H        -0.63153174824973   15.41424222346518    5.35316784374274
H        -0.66030509413049   13.68614600049809    5.71636173431959
C        -1.72654880948695   12.94873681304766    8.57150773933429
H        -1.31836520981333   13.61984282009374    9.32854884926716
H        -0.90965654619243   12.50631318106278    8.00639076236456
H        -2.27644812899993   12.14920515321864    9.06572852654005
C        -4.71561125358742   13.63515687590605    9.24658054917903
H        -4.34326965725425   13.71582644833482   10.26905410109558
H        -4.75324766082154   12.58138719088269    8.96988171989381
H        -5.72460516817166   14.03654643943257    9.21457467652515
C        -4.97465983538868   16.66103291599807    8.21040512282090
H        -5.57644350625023   16.32468101926499    9.04857918545799
H        -5.62828748230229   16.80111386234280    7.35016213738164
H        -4.52957021461294   17.62191575229994    8.46087471979498
C        -4.45978591157252   13.22702868304659    1.76511623884371
H        -4.60151989750669   12.50662414996580    0.95875286316469
H        -5.44416877572352   13.43232469388781    2.18805449228048
C        -3.90898282559823   14.53073865145845    1.17653123057077
H        -3.70128488622708   15.21201275067865    2.00629376171007
C        -2.61087989027202   14.27815275344996    0.41782993427611
H        -2.79087734400824   13.61533720895452   -0.42582991268607
H        -1.88257474053402   13.80938917900128    1.07091662133874
H        -2.20059632488057   15.21256803163917    0.04113583406439
C        -4.94396570406875   15.17635656798953    0.25553939275575
H        -4.55786545408930   16.10418309644938   -0.16014899222921
H        -5.85801850074660   15.39984419735688    0.79996689757091
H        -5.18736048439038   14.50751693239332   -0.56735795151561
C        -0.01421180622813   10.26729919965684    1.19093911128574
H        -0.50464260390808   10.00641731830228    0.25332290460132
H         0.43608597337452   11.24847642956027    1.04110600118372
C         1.10040405803957    9.25162810681905    1.46070508529195
H         1.57133906148368    9.50768425394878    2.41304902562749
C         2.15731749896949    9.31497244543488    0.35831706351931
H         2.96073599573803    8.60919238954651    0.55724856008572
H         2.58620800343144   10.31188458022036    0.29213297428391
H         1.71492577167395    9.06803680112879   -0.60439776926045
C         0.53800334713254    7.83852629443057    1.57141321982787
H        -0.18388452253087    7.78344672400680    2.37971768363926
H         1.33550920987473    7.12377051598356    1.76370689656067
H         0.03770129375193    7.55967177845407    0.64658526127664
C         0.95389501190822   10.83299216884514    6.33158707404022
H         1.06096406559408   11.91407849688948    6.43142812369715
H         1.01348464291907   10.41917777669969    7.33914919340976
C         2.14348728395302   10.30837646834800    5.51842203158330
H         2.05860603603680   10.70256764270033    4.50186785191301
C         3.45831987447728   10.79742257344183    6.12538397905435
H         3.56367887901033   10.43109037581875    7.14427914545868
H         3.49450059616206   11.88396443689178    6.14613844086889
H         4.30409593987109   10.43826894554677    5.54338247503564
C         2.12562926192471    8.78561885395475    5.44900304882471
H         2.95770277919798    8.41964475098410    4.85087136547050
H         1.19681170401252    8.44483773629302    5.00437315684087
H         2.20659274507885    8.36264986546591    6.44778766933528
C        -1.99909575407917    6.36950404060724    6.89775334956570
H        -2.14746495982136    6.44386646591318    7.97504166981075
H        -2.65586141141841    5.57054193845735    6.55266081672713
C        -0.54536371292690    5.96278223117266    6.63240883298461
H         0.09677417331665    6.79642482974954    6.92742352983848
C        -0.31717620354309    5.68059902207263    5.15109749162503
H         0.72778681054152    5.44273954211375    4.96390620554890
H        -0.59130200082753    6.54619314323292    4.55697308578926
H        -0.92532303539341    4.83742317615876    4.83014157738233
C        -0.17289751405187    4.73623129434276    7.46487586418981
H        -0.81070670265905    3.89437089834406    7.20417431644953
H        -0.29143263706552    4.93958742305802    8.52628255499311
H         0.86115022702235    4.45139039028994    7.28395617976930
C        -3.55372571459086    6.57501456180167    2.02967059427181
H        -4.30005513118991    6.70383691684911    1.24585705089074
H        -2.60192938218020    6.40203493890941    1.52795635400971
C        -3.91006655611989    5.32590617200838    2.84420245753176
H        -3.16648658448132    5.21737017375403    3.63805355899293
C        -5.28422849712225    5.47020206316804    3.48981548131550
H        -6.04679594244014    5.61211764577276    2.72739771855969
H        -5.29796193589078    6.33023978342309    4.15199398015697
H        -5.53197677478595    4.58132891728004    4.06634514755963
C        -3.86673967717149    4.08264859247555    1.95663064161646
H        -4.09911012209343    3.19120003516822    2.53494254640154
H        -2.88021377718414    3.95778790926523    1.51678336622537
H        -4.59333422601716    4.16680496214850    1.15145117571641
C        -6.24117132823906    9.34945311821158    8.21831994552456
H        -5.79231766392304    8.89564191505855    9.10162782256669
H        -6.70606450929366   10.28001345040199    8.54555882221523
C        -7.33565264454303    8.41608867617662    7.68628591124631
H        -7.75584228934065    8.86591466606125    6.78334774112139
C        -8.44845488012829    8.26276116779866    8.72250967786561
H        -9.23541034184840    7.61441405860634    8.34415026145746
H        -8.88608553955660    9.22829842030717    8.96318245175629
H        -8.05527011253064    7.82633171672357    9.63806822575000
C        -6.76117547101083    7.05197138963623    7.31975173797583
H        -6.32463211896490    6.57939480940110    8.19664853007675
H        -5.98368792203184    7.16127943378247    6.57089374298739
H        -7.54075016846498    6.40291726671546    6.92666494175768
C        -6.98949112341539   10.84092852965774    3.18145912116946
H        -7.04989892842147   11.91477290147401    3.36832686523167
H        -6.98434691640227   10.70405680214737    2.09944032185467
C        -8.25491452695484   10.18915120520955    3.75561753611299
H        -8.24608247696148   10.34037501437509    4.83815704861649
C        -9.50114633377717   10.85876154831996    3.17897224202062
H        -9.53048898501543   10.73973353326290    2.09789611919069
H        -9.50691833461490   11.92092671490594    3.40968891295037
H       -10.40069836412254   10.41283903075133    3.59683133196702
C        -8.27317212060486    8.69116516297893    3.47315614547018
H        -9.16171724863713    8.23232170509876    3.90126479493310
H        -7.39355013522658    8.22012560516541    3.89997816830292
H        -8.27226961590291    8.50978678209079    2.40077468213725
O        -3.05823534970828   13.41850036106007    4.35769545358485
O        -1.83970345404135   11.55058076538191    5.83604162893745
O        -4.11111307241023   11.12180787586204    7.21112966062832
O        -5.65002336388441    9.91481347799244    5.50659387696419
O        -4.12661441000091   11.19692119475838    3.85947198181402
O        -3.83133959161012    8.52180852065049    6.87469534274064
O        -4.90052489386353    8.81177673321480    3.20045024666186
O        -2.85699721691317    7.74150842272287    4.53182030775853
O        -2.40738514921961    9.19483978471022    2.35663576923353
O        -1.27805450923624    9.03728797388565    6.24163404617062
O        -0.54059711181881   10.19623799186676    3.97922480127862
O        -2.01616087802619   11.82573605486267    2.46764124266701
Si       -3.35754622226739   12.48296833710214    3.11268604181298
Si       -0.74341851629283   10.42942021640583    5.57958670728256
Si       -4.89173906661358    9.74789992248712    6.94968714350774
Si       -5.38383670665953   10.17662171172902    3.93417992434656
Si       -2.50965961826154    8.00516479900701    6.09377325086959
Si       -3.41823854509481    8.14654650511700    3.07046494190945
Si       -1.30372548065347   10.37040019175374    2.56737768371599
Cl       -5.51612084180785   13.29967972736810    5.88429044390442
Ta       -3.47132649137545   12.35563414442526    5.97170467119828

