71
CSD_code = LELXUY | q = 0 | S = 0 | Stoichiometry = C34H26O10Zn | MND = 6
Zn        6.37011991351278    5.70965170259952    5.26640187318209
O        10.38430107420116    9.48661416044960    5.45561891410780
C         9.80767039323866    8.80196098808153    6.26634973894439
O        10.19733577034590    8.95109281302225    7.57552982063847
C         9.57125998141050    8.31941698291059    8.59174508438282
C        10.06353193388519    8.51983606562983    9.88108141903332
H        10.92392335426637    9.15623842212646   10.01247639235807
C         9.44415372438942    7.90931940473874   10.95128003584232
H         9.82734830903162    8.06661525039553   11.94826773461565
C         8.33195093034877    7.09537708219850   10.75715830555835
H         7.85660419523741    6.62306933102975   11.60311522107340
C         7.84200581946980    6.89525824973728    9.48639539305089
H         6.98335494524986    6.26882761217420    9.29867630678548
C         8.45627760802475    7.50323088710757    8.38892476026508
C         7.96008840947191    7.29416268316788    7.02637388314821
O         6.92843770224108    6.59121331184898    6.86367030596862
C         8.71383429670090    7.88938949149797    5.98513719493431
C         8.37941033130416    7.59490929003336    4.62796773413592
O         7.27258607346131    7.12495058922725    4.27902681207100
C         9.39517735537536    7.79950632362074    3.56536487921273
C        10.66918678020572    7.25315108030929    3.69424861740795
H        10.93764371348762    6.73243319841833    4.60171166058740
C        11.57904005660031    7.37131717945358    2.66172827725748
H        12.56660488687846    6.94671296808409    2.76575891431024
C        11.23059681888919    8.03820176880797    1.49790451794109
H        11.94971627328619    8.14016126530205    0.69851968901074
C         9.96039273649406    8.57096038673030    1.36038500553312
H         9.68567846191830    9.08812092011789    0.45278495280760
C         9.03953689450243    8.43865686937649    2.38351599400290
H         8.04452635671162    8.84579611774644    2.28484265098059
O         8.22289068973849    4.52582423727208    5.35817066233936
H         7.95669890796224    3.79997791399021    5.93666857143105
C         8.80800559844411    3.97692105586122    4.18607252022434
H         9.70894256018815    3.41271395480406    4.44403129074763
H         8.10727617105200    3.33267781561211    3.65175170195884
H         9.07514778021531    4.81273504174558    3.54275635160308
O         2.35788431532976    1.93067327649696    5.07686562936663
C         2.93426769364840    2.61550422413204    4.26612506008358
O         2.54515847000371    2.46570066677706    2.95685810016570
C         3.17118398112457    3.09745753709518    1.94065677661109
C         2.67955576127217    2.89621160240185    0.65120394398261
H         1.81965810906694    2.25915920788822    0.51971279512368
C         3.29894684673764    3.50673768345061   -0.41898141872417
H         2.91626851519767    3.34878688056848   -1.41606399308188
C         4.41052045806609    4.32150698921260   -0.22472234465860
H         4.88590191978938    4.79379198799537   -1.07067215704565
C         4.89982032924392    4.52245718738083    1.04615850382415
H         5.75797961505078    5.14953527741388    1.23395866752454
C         4.28552732752767    3.91448373605170    2.14361938634214
C         4.78105684195104    4.12436845591641    3.50628763008705
O         5.81218212321101    4.82806101578767    3.66912645555048
C         4.02729001134870    3.52902238152089    4.54744350253858
C         4.36109734726223    3.82403076004633    5.90465323485714
O         5.46762584130944    4.29450562926673    6.25384755524605
C         3.34510611327411    3.61931142679344    6.96700547750067
C         2.07062126867675    4.16437997001726    6.83733501109333
H         1.80191917185864    4.68416559140362    5.92941124157318
C         1.16060888588070    4.04622546902159    7.86971980394267
H         0.17269244360665    4.46986183720839    7.76508858922505
C         1.50935684166995    3.38063241840127    9.03419404565292
H         0.79013239627974    3.27870451311503    9.83348850452083
C         2.78000734804672    2.84913276662107    9.17248020670775
H         3.05495990815143    2.33295928451237   10.08057016241693
C         3.70099938679197    2.98143687589659    8.14947712878809
H         4.69635462341242    2.57528527543374    8.24873390351052
O         4.51725277675595    6.89352235194102    5.17534198757466
H         4.78405094764579    7.62011167682257    4.59802079679914
C         3.93208406696458    7.44115347792683    6.34799565636796
H         3.03232664553706    8.00735111238256    6.09025159826180
H         4.63353609184441    8.08322651651829    6.88403971015751
H         3.66300876872258    6.60444252134894    6.98935566066122

