144
CSD_code = LELYEI | q = 0 | S = 0 | Stoichiometry = C39H78F3O15SSi7Ta | MND = 9
C        -1.96595650755603    5.79393996783972    7.64133578433820
C        -2.45159912632874    5.29250840737046    8.80191624346284
C        -1.42584135015148    5.39087004962929    9.83135136168730
C        -0.31319033721508    5.94316083647642    9.29418367534277
C        -0.53276450800086    6.17327102114444    7.83748502820929
C        -2.66011450284258    5.99842757127231    6.32843329097126
H        -2.82726091978925    7.06248205244759    6.15243523546191
H        -3.62418809057874    5.49852388711729    6.32059010524430
H        -2.04567167801438    5.60240610176634    5.51800441494657
C        -3.77892467633226    4.66657990105712    9.06699241237602
H        -4.26687955853900    5.13765400678257    9.91903901226079
H        -3.61994543299092    3.61494568237872    9.30102824436499
H        -4.43216990157737    4.74167344643288    8.20298398456740
C        -1.64294195931459    4.90486567053043   11.22469258304742
H        -2.49633129038566    5.40615811210775   11.68001976357556
H        -0.76612501616501    5.07643804592082   11.84100184568540
H        -1.84607026670534    3.83574532255819   11.19559437636882
C         0.98133033105867    6.30544530901523    9.95676340593525
H         1.80624276179834    6.14997557596210    9.25981759469515
H         1.14796077972499    5.69227128655905   10.83886721313683
H         0.97365336725729    7.35325207468776   10.26376431498928
C        -0.11642157982178    7.55566204033683    7.33187402061988
H        -0.34878231366949    7.65136173576128    6.27561552276846
H         0.95424076765338    7.69690038443329    7.46452403673935
H        -0.65153820032252    8.32337980970417    7.89254968913386
C         1.22726975472698    1.92980822539740   10.12945033551309
C        -2.07133117507182    0.87707852676330    5.56805947143074
H        -1.67379281169376   -0.05277050807854    5.16080190357696
H        -2.22461161332668    0.71632343665221    6.63662937747210
C        -3.42394377475215    1.17148727790828    4.90987633096907
H        -3.25313650531905    1.32086146980304    3.83930264621241
C        -4.37518864416890   -0.01071211102332    5.09354828209258
H        -4.55556883376295   -0.18778525828776    6.15103197359080
H        -3.95468413726848   -0.91484172555592    4.66070759983397
H        -5.32916445232405    0.18896076824136    4.61073648895265
C        -4.03095281207976    2.44323838640424    5.49152752512947
H        -4.98496653752566    2.66771246771927    5.01755546501871
H        -3.34992238856231    3.27470910527513    5.33820946165789
H        -4.18758254042414    2.32639568432916    6.56091867063604
C         4.83051434226075    3.99033482816564    7.80009641610319
H         4.43436184612987    4.13816170943650    8.80650390677429
H         5.16189113729355    2.95409378128079    7.74723928754209
C         6.04893003341849    4.90105627522887    7.60323146172324
H         6.40941147797486    4.76026336066430    6.58081189220487
C         7.16327653509285    4.51729663347492    8.57590316237559
H         6.82310723504386    4.62562862803005    9.60323140358699
H         8.03072540500907    5.15738722831621    8.43251693321844
H         7.47046371359629    3.48579089454095    8.42315060615555
C         5.66354266094488    6.36536784496144    7.78264068009096
H         5.31469625486277    6.54005942120801    8.79781311964285
H         4.86327509680236    6.62355917879520    7.09515390487529
H         6.51721861569725    7.01293800483516    7.59383830745439
C         0.00120921590338    7.79992933846788    3.54198486157812
H        -1.01397712466923    7.83394736817815    3.94045743208771
H         0.57503008173535    8.56342898065980    4.06801986167834
C        -0.06187922511904    8.18276460512826    2.05452702638749
H        -0.59080957867436    7.38857495410109    1.52404480286034
C        -0.82935304637585    9.49303385390429    1.88158512412607
H        -0.32985377311155   10.29752528033373    2.41612859544944
H        -1.84189008682191    9.40110710921428    2.26557262024712
H        -0.88615064852593    9.76476341376514    0.83045393385391
C         1.33788012043505    8.30455295278989    1.46397852244965
H         1.28408548289268    8.56939628646590    0.41061523602688
H         1.86605700396996    7.36313919236263    1.56697641780159
H         1.90097379614533    9.07388012664722    1.98594706751680
C         2.89600583602157    0.00970096070116    6.22424900411525
H         2.11859156249085   -0.38086675230647    6.87896306453986
H         3.06812667684117   -0.73157751915221    5.44245142548186
C         4.18601142681730    0.17332421822783    7.03831909864813
H         4.00666626704693    0.93078159398254    7.80703585671264
C         4.54073563970595   -1.14051656019536    7.73434848265765
H         4.70081495444989   -1.92740277135709    7.00035642870606
H         3.73825104566273   -1.44728057969727    8.39981952097890
H         5.44928380578697   -1.02884639741727    8.32207183033491
C         5.33780547757890    0.62719253136223    6.14487610419388
H         6.24999973389287    0.75294263106827    6.72549337116616
H         5.09535026645377    1.56929126148549    5.66082704104869
H         5.52372746915768   -0.11432373487982    5.37106654168069
C        -1.56782645041713    3.29955794995706    1.33843500070265
H        -1.26403316927828    3.82814853323534    0.43528479317479
H        -1.58631461363265    2.24040487679985    1.08226734543247
C        -2.99133938994136    3.73773666383158    1.70905712043536
H        -3.27261389967942    3.22980986544712    2.63409351791767
C        -3.05428065094872    5.24164473747934    1.95422587081386
H        -2.76645287899543    5.78149133106852    1.05529339970013
H        -2.37367884122445    5.51611123380005    2.75336843777370
H        -4.06335805312391    5.54054572404724    2.22976295331519
C        -3.97393466645859    3.33643446696943    0.60921222557082
H        -4.98651740416124    3.63050184674112    0.87556155452791
H        -3.96015237053290    2.26074073578448    0.45319528014437
H        -3.71124940921829    3.82180983232359   -0.32788156561863
C         3.35071222805999    1.61158476558362    1.12421422993145
H         3.10324929847920    0.55169053610542    1.18437417037931
H         2.86723296758442    1.98997657561874    0.22344331416531
C         4.86898567972795    1.75221705036777    0.95850236492422
H         5.11472176031015    2.81614037850885    0.99565917881762
C         5.60172651016624    1.04348651448503    2.09222241297017
H         5.41372521319816   -0.02697279422929    2.04793590535692
H         5.24930287756438    1.41388363500237    3.04824167612008
H         6.67406280722883    1.20967252281303    2.02005063055065
C         5.31356793199998    1.19034024731400   -0.39154328250604
H         6.39055297462411    1.28627475479999   -0.50853418695524
H         4.83169555015029    1.72157216652440   -1.20828940575256
H         5.05383383325367    0.13686472191022   -0.46726309652225
C         5.06264984638941    6.28030305113691    2.95767240181175
H         5.08465185905106    6.15720843679096    1.87490617052333
H         4.84552234282177    7.33221582319768    3.14331622847804
C         6.45790311256681    5.96584214485507    3.51153222439524
H         6.42223803564525    6.07520267083471    4.59824727782842
C         7.48549155442537    6.94924593908460    2.95268775727448
H         8.47394401514006    6.73838672274018    3.35422563242908
H         7.22162236825970    7.97130033341630    3.21184011118841
H         7.53215766227080    6.87142089816991    1.86892011522543
C         6.86078403062112    4.53308290557946    3.18178255262878
H         6.90396068904324    4.39325480606227    2.10451639572096
H         6.13100773891314    3.84139947981121    3.58885849701275
H         7.83878469793183    4.30365642435875    3.59952842571944
O         1.07123954251584    3.70649965716457    8.41414426264016
O        -1.03073599630476    2.58784104396083    8.99948407931206
O         0.69948232220795    1.39617500921389    7.68734053287335
O         2.36114635903088    5.39678140175462    6.92198710728885
O         0.34881719017963    5.36754414200905    5.23110050049650
O        -0.67220276599075    3.24283931222472    6.61882609528178
O        -0.96777334958832    3.25307327324520    4.12403938497204
O         0.21974726013412    5.11498024755187    2.64821199229391
O         1.02030572346078    2.63967224420547    2.36254332950704
O         2.37169091854733    6.20723409023523    3.81978425881701
O         0.66742130702751    1.51010566973775    5.04685469483784
O         3.31715606699732    4.01298466242409    2.65438684616176
O         2.97372096088014    1.77724626134474    3.99240815116367
O         4.13906520912996    4.62618262940991    5.10099708022676
O         2.50918488969035    2.93852579745663    6.31399992455904
F         1.07527477750953    2.82208985180132   11.11641866265701
F         0.90331782181366    0.73006505195274   10.62733066480677
F         2.53798474168867    1.89324402724964    9.83687193371332
Si       -0.75238892775497    2.22260546182546    5.37792294482680
Si        0.75467688573630    6.08045117386225    3.84502374954866
Si        3.44909057217060    4.29938740229538    6.53741492834063
Si        2.23596709773783    1.60095987027610    5.43596867488577
Si       -0.26847280096147    3.56363132336300    2.69266571192709
Si        2.62552506234788    2.54250817132456    2.60515934394714
Si        3.65724148344999    5.22832866251260    3.67431569020490
S         0.31199119330285    2.45594621085675    8.55634068243574
Ta        0.62794961386766    4.49554466445588    6.77611609057046

