142
CSD_code = LELYOS | q = 1 | S = 0 | Stoichiometry = C40H81NO12Si7Ta(1+) | MND = 9
C        11.90234835153331   10.04358508484740    8.21441442415910
C        13.13900771891802   10.07034282165234    8.76317161726948
C        13.79713372747098   11.31990283127492    8.39715593654117
C        12.95754106381243   12.05206407443862    7.62926687601392
C        11.68674614469110   11.28773455036296    7.41442773361541
C        10.81219123805325    9.03744693801926    8.40099666701638
H        10.10673582943247    9.38435711833414    9.15629568734641
H        11.21115310007071    8.08295295340121    8.73196265013527
H        10.27624534706607    8.89402093348465    7.46372618634945
C        13.79469192884800    9.04551042172219    9.62546315017784
H        14.69824750869324    8.67277804056788    9.14407594554485
H        13.12784759702264    8.21179485808679    9.82128463825678
H        14.08358255786239    9.48546236512377   10.57810798926075
C        15.15321047364043   11.70459810428539    8.88349318549426
H        15.08354271464124   12.13893614401849    9.88073690511099
H        15.60403738276342   12.44139398873790    8.22551242444828
H        15.80317650452291   10.83640698118091    8.94232644743169
C        13.17007228009729   13.43664244178238    7.10243961986834
H        12.54760056829874   13.61091181492047    6.22514020851930
H        14.21185974869359   13.58521946169547    6.82720686608272
H        12.91864003346502   14.17401810893748    7.86643408428008
C        10.41151697460598   12.03462838636939    7.81571386666185
H         9.53188009173180   11.43594037442250    7.58345693854313
H        10.33756631357259   12.98443888062721    7.29158163296049
H        10.43496350361826   12.22565105176648    8.88937510941285
C        15.65732644668246    9.26749261577045    3.64175376512717
H        15.45647524829505    8.23806794975807    3.93917334238081
H        16.08520894395475    9.22811938559122    2.63980619894306
C        16.70168906532522    9.85986980008468    4.59924302176559
H        16.79760053960431   10.92658906340720    4.38189465258259
C        18.05830049482106    9.19122917950672    4.38124715495529
H        18.79826884858581    9.60426237582756    5.06162452740613
H        18.40723728658030    9.34653146825934    3.36398090750237
H        17.98882634018495    8.12075911750797    4.56075968872596
C        16.25620860026839    9.70020617604502    6.04904443613338
H        15.28215268401034   10.15840165286881    6.20118308641814
H        16.97679163753650   10.16904432668671    6.71389042693412
H        16.18939674354407    8.64506290083117    6.30724175624890
C        14.43851224548650   13.87966567316481    1.38107654174022
H        14.73544945771494   13.74639748013109    0.34081098115877
H        13.96393998224441   14.85833487892442    1.43674923067751
C        15.70741815723524   13.89331809986195    2.24918284249478
H        16.19893661404953   12.92233666409892    2.14009778045296
C        16.65877180514974   14.98629121152402    1.76447960528130
H        16.91990070504914   14.83504473353456    0.72058051617324
H        17.57488667449465   14.98162791870393    2.34947901402628
H        16.19492343762903   15.96490183102550    1.86348999689050
C        15.37662543472522   14.09724179882921    3.72593919910743
H        14.86742832735790   15.04742062161448    3.87255635679288
H        16.29131733610418   14.10876575569127    4.31504960300630
H        14.73922177258520   13.29701621954664    4.09494264298264
C        10.93135121768425   15.28185277708208    4.04281841500054
H         9.90458473593128   15.64900798121902    4.04630979924032
H        11.32759880153957   15.45803388904458    5.04311015150571
C        11.74097676663767   16.11847605336439    3.04329398945185
H        12.77776605191468   15.77263717465873    3.07730252143595
C        11.21188003669648   15.94281199460587    1.62360194214625
H        11.28946188273471   14.90515622430396    1.30924161267262
H        11.77484389966714   16.56078174828936    0.92763013263157
H        10.16667502087049   16.23735358739383    1.57559159017765
C        11.70616823871753   17.59223099239312    3.44579969677968
H        12.30370572708503   18.18801417682276    2.76047570830863
H        12.09970336180688   17.72944483477696    4.44980596202071
H        10.68612939438665   17.96733558359083    3.42286546809694
C         7.20995175200676   12.05724760858400    1.83007348184205
H         6.77704569003160   12.48660774056751    2.73557179561604
H         7.10875744954826   12.81705650584162    1.05454195488424
C         6.37767877764921   10.83379862464003    1.42395643796327
H         6.56860494547610   10.03595861029722    2.14699945123101
C         6.77368646731660   10.33718970405181    0.03756849391144
H         6.19543338703195    9.45662230040530   -0.23220547263554
H         7.82854757008624   10.08503352471582    0.01103329977550
H         6.58348748074322   11.10981999274316   -0.70368505635990
C         4.88839083522151   11.17577168353176    1.45488902566193
H         4.67185225769852   11.98353744138118    0.76022610625986
H         4.58149951098094   11.48800110599985    2.45001225916224
H         4.29275607247298   10.31221331170384    1.16906958497269
C         7.87487477163845    8.24261352102153    4.26352383396007
H         7.82664081529693    8.03440469289517    5.33293939978501
H         7.00959153208514    8.86469161731557    4.03576029281239
C         7.74045833404116    6.91467924706216    3.50130060101911
H         8.66719234970440    6.34960324786065    3.63482831172258
C         7.53008923279170    7.15513493348893    2.01013448168422
H         6.57797800835650    7.65123827870026    1.83940254900921
H         7.52219746212732    6.21013852787858    1.47256278192097
H         8.32622177300911    7.77539588229589    1.61055269116064
C         6.58070858080516    6.09973628073354    4.07162496355199
H         5.64910911829846    6.65289591222144    3.98033948868801
H         6.74356178699347    5.87335243261431    5.12223437027072
H         6.47500973085240    5.16210178046207    3.53211822352801
C        11.13062867479907   10.66037033642434   -1.65878673214396
H        12.10041505219147   10.83572632699680   -2.12497934547292
H        10.86526505930361    9.62576974075396   -1.87832371194192
C        10.09732828024902   11.58118314455821   -2.32465046646580
H         9.12582196069199   11.39652684894792   -1.85886434719114
C         9.99561093911242   11.26392413692900   -3.81523215726962
H        10.95066618051804   11.43550944503911   -4.30562831687895
H         9.25030360070206   11.89745114230554   -4.28890697252046
H         9.71046305310397   10.22689183485880   -3.97149562459643
C        10.46115067468551   13.04692718260521   -2.11561960658043
H        10.49157583325439   13.28158827277466   -1.05541294511472
H         9.72953858893535   13.69188736051362   -2.59613050943092
H        11.43855069826008   13.25693037401044   -2.54277069588914
C        12.55656325456985    6.86510009862150    1.75816466751871
H        13.36364156464962    6.98238031227671    1.03463246904853
H        12.99576463694485    6.39670431195242    2.64080515143562
C        11.50962015576349    5.90807486119800    1.16852797691755
H        10.68769983535834    5.82041968096724    1.88434686893425
C        12.12222780819211    4.52650701814441    0.94506871711680
H        11.37959697939967    3.84305895222137    0.54196427921350
H        12.49738295698998    4.10994505013876    1.87676754649577
H        12.94724691395347    4.58810129785695    0.23955257522978
C        10.94978091554685    6.45498933651681   -0.13937016039815
H        10.48587472296892    7.42237252376476    0.02486075437423
H        10.20755434530333    5.77381736512594   -0.54802312506253
H        11.74685039049922    6.57572681888631   -0.86873613944783
O        10.73789140425172   12.46275810663623    4.95795372556273
O        13.54833393722318   11.08415505881107    4.82891244027419
O        10.36604576253184    9.48252269671382    5.23569663647567
O        12.31167559336465   12.77879849720456    3.13594085553297
O         9.80022801368277   11.17875733695634    0.82772928450256
O         9.72765012268550   13.14717680996400    2.58300420629973
O         9.32492138933934   10.73751756896868    3.39372632841027
O        10.37849640442915    8.38356014183165    2.83240381536139
O        14.11931229866659   11.18461810227748    2.22171644775024
O        12.70949402000932    9.26411466191050    3.41181020421380
O        11.83114484093016    9.51322092559240    0.89830473131668
O        12.28497720961863   12.10202821478087    0.57667990095868
Si       10.89423005468484   13.42633041755413    3.67555901658391
Si       13.23356675645653   12.49687025694242    1.82859164822200
Si       14.04832492238488   10.25743478750256    3.54769151149736
Si        9.04215829381914   11.73906916243263    2.14540148950744
Si       11.27167672109729   10.88399523630554    0.20679405510904
Si       11.86299226400109    8.56717883244829    2.20241443822703
Si        9.47586746846423    9.19395121902219    3.92789356077127
Ta       11.66735193623680   10.84118664207462    5.09992357270028
N        12.82928621982081    8.64801527751752    6.08207939823549
C        13.12079338384961    7.54915091832788    6.23119223977846
C        13.48313762291881    6.18731551011351    6.44949151699110
H        14.29501471452846    5.90512032963253    5.78021915056194
H        12.62128192512249    5.54820774787544    6.26054472996093
H        13.80729928364356    6.05764261084342    7.48180053801952

