129
CSD_code = LEMBUD | q = 0 | S = 0 | Stoichiometry = C68H44N8NiO8 | MND = 6
N         2.77245551127844   12.87598355333870    4.19196355655408
C         1.67288140878704   12.08314482291205    4.30879077746038
C         1.71755905386677   11.01165111767126    3.35248235906489
C         2.87335171572649   11.15565878849757    2.66933965916599
C         3.52471000848255   12.31804905456719    3.20708395276939
C         4.73732549654260   12.79244813173638    2.72073511482777
C         5.33140843637918   13.95678650285604    3.19241328677412
N         4.85483113415554   14.76799587786504    4.17389619548600
C         5.77916778466765   15.75601257479088    4.31488273139777
C         6.86198300367493   15.57286948714702    3.38816925713309
C         6.58923665743523   14.44503508208019    2.69805593891442
C         5.41776346366655   12.02449480460892    1.65925545522563
C         5.91014453288961   10.74804351559978    1.92462170855129
C         6.54574390426169   10.01964402925076    0.93985213594818
C         6.69339968750764   10.55885689688701   -0.33630353517542
C         6.20033287405026   11.83450436322149   -0.60745800667029
C         5.57157264686073   12.56064214387837    0.38211151165513
C         7.36093036110308    9.81475551723244   -1.42311762123850
O         7.79221186451117    8.59663764434060   -1.05250298754871
O         7.51905524078013   10.23038541922511   -2.54470359954582
C         0.61398464667499   12.26374390860227    5.19345113789833
C        -0.50023079658854   11.29591428032532    5.16878022410084
C        -1.77788778034135   11.70356359334735    4.78808605086977
C        -2.81801829451389   10.79923732400586    4.75309483362229
C        -2.60154770024544    9.46754260445651    5.10431112693100
C        -1.32806773611103    9.05503597952761    5.49006606839780
C        -0.28944177220518    9.96330337491905    5.51775027156105
C        -3.74202505583620    8.53089543780071    5.05345668782560
O        -4.86425009805276    8.83209858154397    4.72840669930794
O        -3.42043070400822    7.27510457998905    5.40847510985645
N         4.39967462497717   13.22711970380672    6.81534440264366
C         5.64791274917356   13.57136304512910    7.11058753590375
C         6.59848468937828   12.67763276492049    7.57093702106866
C         6.24689939744006   11.34010511461792    7.73836419484248
C         4.93143378626142   10.98533073070533    7.44628203665014
C         4.05501569350031   11.95755622790295    6.99875471818222
C         7.21877070329330   10.34593289815715    8.21265269379583
C         8.12219542349941   10.64691313321262    9.23031394698368
C         9.01102687679431    9.66748770557053    9.64143998492337
N         9.05740595712167    8.45605170205302    9.11483176764146
C         8.20504460281240    8.16937135650267    8.14618296677188
C         7.26824291339781    9.06673482388857    7.66138647666610
Ni        3.16819373005882   14.54215341261960    5.20117653048016
H         0.95530047051942   10.26880662524825    3.22119512801231
H         3.25000891278345   10.55460920812818    1.86507858292003
H         7.70562881082726   16.22703914866960    3.28666358120997
H         7.17374110123159   13.97765835314915    1.93014921133663
H         5.79524719612977   10.33615698550378    2.91690012767968
H         6.93064255293474    9.03369975609533    1.14827876521677
H         6.32132169611505   12.23422688261123   -1.60288473161930
H         5.18281037694750   13.54638352953060    0.17321469095580
H        -1.94370686248822   12.73479878416584    4.51203191972157
H        -3.81090089666330   11.10020198871267    4.45497023453216
H        -1.16338254127699    8.02504199429144    5.76498461956502
H         0.69837064668096    9.64652265365869    5.81973485648840
H         5.89945304546894   14.61504530258762    6.97739960047780
H         7.60406595636653   13.01043888144050    7.77874643444778
H         4.59392704972045    9.96965036538788    7.58729573371153
H         3.02528653860750   11.70728638875591    6.78047700760643
H         8.11496225534114   11.61653456834412    9.70419792684724
H         9.72367242056355    9.85998195540511   10.43270931745117
H         8.27856698396639    7.16857309935614    7.74102920637932
H         6.60314674834492    8.78728963463417    6.85851750981624
H        -4.20794841597868    6.71193147547146    5.35502472455415
H         8.21946813305860    8.16166827670571   -1.80649002755491
N         3.56393827066945   16.20830888975054    6.21032301440746
C         4.66351791239805   17.00114055919891    6.09349103277223
C         4.61884372717080   18.07263901038158    7.04980162015403
C         3.46306318133230   17.92862930634172    7.73295835540639
C         2.81171269927041   16.76622083818273    7.19523800804655
C         1.59916924551684   16.29174755573520    7.68170104507537
C         1.00513292460328   15.12736641708019    7.21006881150280
N         1.48166040323778   14.31622974573477    6.22850370441010
C         0.55738367062289   13.32814561537613    6.08758458675391
C        -0.52533782431111   13.51116813715845    7.01443754238915
C        -0.25259460216636   14.63899043892514    7.70457051087179
C         0.91877445805324   17.05964661166276    8.74324852973576
C         0.42638495262728   18.33610783037240    8.47794860320838
C        -0.20916230906550   19.06447548611827    9.46277198398541
C        -0.35674227041914   18.52523287744587   10.73892441407446
C         0.13633360949489   17.24957413445540   11.01001226109459
C         0.76503255562933   16.52346136670676   10.02038406425022
C        -1.02413503339649   19.26935047677652   11.82580719440859
O        -1.45538652875592   20.48749643755999   11.45525773192876
O        -1.18235493896881   18.85363271039520   12.94734870808172
C         5.72250523508931   16.82045972480999    5.20895519534171
C         6.83685812217731   17.78811916576806    5.23380465613977
C         8.11439194204551   17.38020209127581    5.61463029946645
C         9.15469322276686   18.28432335141549    5.64980025379886
C         8.93852579001114   19.61608544744967    5.29864830228024
C         7.66517086421007   20.02885902417830    4.91276400445396
C         6.62637263054120   19.12079029898185    4.88488558013866
C        10.07917576134458   20.55251098000222    5.34972826442163
O        11.20133906434668   20.25102995477575    5.67473906783217
O         9.75784537018713   21.80842506685262    4.99491460061164
H         5.38110148501029   18.81548406805184    7.18107887653010
H         3.08641381053567   18.52967804783335    8.53722375825161
H        -1.36892389815541   12.85693189660580    7.11599859309878
H        -0.83705103114049   15.10628508664808    8.47256290651943
H         0.54116280469123   18.74800289038456    7.48565852662596
H        -0.59414112843661   20.05039535017464    9.25436569219100
H         0.01543234211847   16.84983551448732   12.00544334201774
H         1.15388032540096   15.53774837880196   10.22925447694026
H         8.27997049642707   16.34892151115081    5.89065663993031
H        10.14747740953144   17.98315041091733    5.94803622138510
H         7.50071001476406   21.05891136163740    4.63792386893164
H         5.63864809320478   19.43779368794313    4.58284221639373
H        10.54549117504411   22.37140876020591    5.04846731325765
H        -1.88266035340901   20.92242931718398   12.20925675034533
N         1.93716419835519   15.85690872775857    3.58649276458766
C         0.68946136148204   15.51256736733497    3.28919102520972
C        -0.25922298488309   16.40542091393197    2.82327154344640
C         0.09380600581018   17.74210510314776    2.65220279370795
C         1.40871345459690   18.09693957904906    2.94670327815230
C         2.28322023028941   17.12560415095001    3.39988110509471
C        -0.87607785806844   18.73535032314252    2.17192939370331
C        -1.77699531902845   18.43155657597222    1.15288413439960
C        -2.66407791098891   19.41018856995515    0.73612364860662
N        -2.71103966793690   20.62341124894380    1.25854713265291
C        -1.86104781852054   20.91277954820203    2.22847778145706
C        -0.92613843486950   20.01642493744539    2.71876466868963
H         0.43676348165716   14.46955533924238    3.42538404796795
H        -1.26449786459213   16.07264579211759    2.61394091538748
H         1.74731775696186   19.11190905191787    2.80324333375664
H         3.31249027746888   17.37590484477207    3.62026205460349
H        -1.76915732259298   17.46034705796468    0.68227434296366
H        -3.37475409664331   19.21551721474578   -0.05638261705306
H        -1.93498237099982   21.91497131093892    2.63009259409711
H        -0.26300159165682   20.29810904040614    3.52247013168435

