111
CSD_code = LEMCAK | q = 0 | S = 0 | Stoichiometry = C58H38N6NiO8 | MND = 6
N         3.84214606014049    7.37715424333787   13.13243215675720
C         2.92987642681464    6.84047836125158   13.98616780145510
C         2.58062611193229    7.77702666396732   15.01822479492315
C         3.28435991821937    8.90133272142189   14.76903868130164
C         4.07390663190760    8.63488353563379   13.59879109011897
C         4.93273662450295    9.57648270339863   13.04203752206403
C         5.67575635575555    9.31633910997219   11.89540143025254
N         3.62891261991965    4.86236296286055   11.92055700184446
C         2.74033662575613    4.65695558931804   12.92893870768561
C         6.61334479468840   10.25874864772184   11.35073481441295
C         2.13367524606867    3.35903876338236   12.82119599433589
C         2.39391818948510    5.56097850770321   13.92464927698338
C         5.07011213981377   10.89328024815839   13.69320589787806
C         5.59917342448195   10.99403206404557   14.97913603488580
C         5.73612599641997   12.22577460517074   15.58324658003868
C         5.34071165036174   13.38327248676196   14.91408732352121
C         4.80769447526259   13.28872173218349   13.63029182824121
C         4.67820588817943   12.05389366426038   13.02820047099218
C         5.50399653435374   14.68239861650962   15.59603590131436
O         5.95602878070827   14.82427302446959   16.70585350964191
O         5.09664373660775   15.73019658036524   14.85890836495601
C         1.41086301058192    5.14715781588043   14.94466445970951
C         1.71783212513184    4.12952542989502   15.84597754789938
C         0.80264646867530    3.73545308150332   16.80071155861114
C        -0.44446364260724    4.35360046868734   16.86454211433620
C        -0.75750301573253    5.36985124546469   15.96265837817565
C         0.16274160125045    5.76365936014451   15.01423945630807
C        -1.45615794434257    3.96338660774753   17.86618816033323
O        -1.05248004900054    2.97025254339779   18.67780596511388
O        -2.54701631843076    4.46770590890759   17.97521104922993
N         6.36702932585930    5.75498720572413   12.80968285865289
C         6.65351035409017    4.45597742863567   12.82673673250874
C         7.36984382147009    3.83969874586903   13.84011198200346
C         7.82756510818552    4.60980313118626   14.89627706383392
C         7.55760900692637    5.96783890940697   14.87691033186028
C         6.83322710845127    6.48858793323487   13.81662337333496
Ni        4.64571632792339    6.51486166949807   11.54306045864519
H         1.89198404448166    7.58575273346263   15.81752451543265
H         3.27576064397857    9.82674933054268   15.31074250584072
H         6.82898562281048   11.22443708729942   11.76420818025751
H         1.38099279091901    2.97362778462892   13.48052546428259
H         5.91039667185790   10.09728835863548   15.49496496892219
H         6.14957582466904   12.31873846746681   16.57606982286260
H         4.49958437100384   14.18502414537189   13.11517644936972
H         4.26312808044026   11.97727323925030   12.03362389118362
H         2.68756608335042    3.65598445906739   15.79421733567097
H         1.04353179647601    2.95074313267323   17.50064146876947
H        -1.73016349217915    5.83403864565693   16.02441178311906
H        -0.07911746055863    6.54576987544321   14.30967137180009
H         6.29696882425707    3.87641452810127   11.98576657982529
H         7.56755695686897    2.77940918814187   13.79914064417991
H         8.38721521663205    4.16569766948454   15.70675559468489
H         7.90604791368450    6.61497210307311   15.66715656998985
H         6.62457559918314    7.54908713598199   13.77319681555295
H        -1.75737292297384    2.76383562732528   19.31080792278826
H         5.22947811187785   16.54926219219499   15.36056166096960
N         5.44931416082088    5.65255622036125    9.95372665178492
C         6.36164063744813    6.18919566470630    9.10004148163565
C         6.71095782317088    5.25260868517359    8.06803448000379
C         6.00719553302638    4.12831383541361    8.31719393804485
C         5.21758370883303    4.39481526135433    9.48738809610809
C         4.35872803352469    3.45323562711819   10.04411772511876
C         3.61566903391727    3.71339403030649   11.19072079702006
N         5.66251509472581    8.16736745960073   11.16557109545221
C         6.55110980124379    8.37276338029019   10.15719500041552
C         2.67807547298318    2.77097643390091   11.73536910214749
C         7.15778981137753    9.67067014720376   10.26494139971415
C         6.89756923693398    7.46870322464895    9.16152649353612
C         4.22132542535790    2.13644313816652    9.39296865311110
C         3.69216801275394    2.03571093256112    8.10708782671356
C         3.55511863771141    0.80397363695353    7.50300396794768
C         3.95052903359157   -0.35351947682094    8.17211157161306
C         4.48353566761520   -0.25899458687958    9.45591350780158
C         4.61316501704348    0.97582879526007   10.05797960257043
C         3.78730868546080   -1.65258899256621    7.49000942094368
O         3.33547457058264   -1.79442757955196    6.38005059885514
O         4.19471318774259   -2.70043732316603    8.22709810539877
C         7.88060897349341    7.88243205288364    8.14145379440109
C         7.57355308885756    8.89986089730677    7.23993569142048
C         8.48880126929446    9.29402203569939    6.28529422951812
C         9.73603783226818    8.67610189879002    6.22168255277505
C        10.04927999740701    7.66025516756343    7.12396267955715
C         9.12883691098142    7.26611160609590    8.07206062702513
C        10.74700400828330    9.06505797303675    5.21881625863767
O        10.34384482187277   10.05909314729680    4.40810262204860
O        11.83885196034555    8.56237390890094    5.11135102659447
H         7.39964808155062    5.44387651081779    7.26877949662621
H         6.01583379450499    3.20285900626426    7.77553647679861
H         2.46243627779371    1.80527853859069   11.32190841412223
H         7.91048498499406   10.05608578017848    9.60561197077116
H         3.38089209049872    2.93245678200499    7.59130223504488
H         3.14159818110425    0.71101376384363    6.51021249331569
H         4.79171151190320   -1.15530251499410    9.97097812697481
H         5.02824972904932    1.05243881829326   11.05256138207713
H         6.60382884074644    9.37341293483566    7.29167756668172
H         8.24782956974001   10.07855766762602    5.58519475948869
H        11.02177632501101    7.19579556420674    7.06194956284633
H         9.37066313098716    6.48392692119208    8.77655481469172
H        11.04912193041203   10.26617343700969    3.77573226497598
H         4.06217304260274   -3.51943152105519    7.72525090799417
N         2.92434274629287    7.27472887076400   10.27650708487664
C         2.63775822247689    8.57371661685323   10.25957981099562
C         1.92145343161287    9.19005651054812    9.24622697976172
C         1.46386511503026    8.42005338590084    8.18993502711955
C         1.73394075353110    7.06204674933335    8.20915830513778
C         2.45829044368172    6.54122490269190    9.26942899520518
H         2.99413168810993    9.15319589117683   11.10067811999373
H         1.72365750029767   10.25032087575511    9.28730676698085
H         0.90431007804702    8.86423213291949    7.37941939189902
H         1.38561489558773    6.41498742058646    7.41880842949625
H         2.66693598917309    5.48071973217274    9.31279139854410

