75
CSD_code = LEMCUB | q = 1 | S = 0 | Stoichiometry = C32H38AgP2S2(1+) | MND = 4
Ag        0.00000000141596    0.00000000023404   13.95290971259011
S         2.48156733457876    0.61112690223434   12.62334802492486
P         1.32142459011783   -2.03296793111607   14.47474778952638
C         3.18400251913465   -1.08264559834871   12.61034314909094
C         3.07609584749191   -1.70325195827174   13.99451612706980
C         1.57344585048282   -2.57981466403040   16.18823234736628
C         1.44781493288228   -1.61875627358856   17.18710828897350
C         1.66257480700938   -1.96265528808021   18.50825014941243
C         1.99412680654033   -3.26857724619165   18.83469303078370
C         2.11155326594673   -4.22826218255437   17.84180351897049
C         1.90268589137248   -3.88987689398905   16.51671700846321
C         2.09367141818618    0.86484915257944   10.84881131277785
C         0.94018505278513    1.83754469138655   10.70958760999701
C         1.69719637144728   -4.35797988095715   12.84809992388342
C         1.19992697594048   -5.49689333946993   12.23655165583172
C        -0.13415931239629   -5.84231027787773   12.37503128854450
C        -0.98471148368888   -5.04191333855396   13.12324260992211
C        -0.49667979842401   -3.90034293870750   13.72833102903899
C         0.84988004350649   -3.55691056300453   13.60518219478890
H         4.22796337459637   -0.99599128714089   12.30491737178257
H         2.63521297022975   -1.66722272296993   11.86929095667786
H         3.65303058904072   -2.63186863534576   14.05209303027071
H         3.48168782718113   -1.01374319013644   14.74255656979484
H         1.84471225938301   -0.10871993482189   10.42710280790873
H         2.99321236817791    1.24988664155073   10.36945994124389
H         0.65809509260603    1.93409016749649    9.66360034341318
H         1.21492670617451    2.81847073846217   11.08987866331606
H         0.07796142397084    1.48294689501043   11.27984390345514
H         1.18201744975054   -0.60122748822118   16.91187696667935
H         1.56893910014654   -1.21713667892762   19.28338516521890
H         2.15748359335322   -3.54012379773689   19.86625098537165
H         2.36624569708458   -5.24469920798511   18.10085433436793
H         1.98648825140238   -4.63909478073339   15.74205119041144
H         2.74153029997576   -4.10828910253921   12.72897011907484
H         1.86058347884033   -6.11874293383035   11.65133036535020
H        -0.51163980763874   -6.73357936085894   11.89796135831462
H        -2.02565154453647   -5.30718272195628   13.22991003960387
H        -1.15273892416415   -3.25690595937715   14.30476397220452
S        -2.48156733611688   -0.61112690231182   12.62334802376602
P        -1.32142459039732    2.03296793122564   14.47474778957519
C        -3.18400251934073    1.08264559854937   12.61034314957572
C        -2.09367141810960   -0.86484915314585   10.84881131246656
C        -3.07609584762035    1.70325195855611   13.99451612726611
C        -1.57344585048375    2.57981466410724   16.18823234743265
C        -0.84988004361052    3.55691056302049   13.60518219480837
H        -4.22796337449838    0.99599128751416   12.30491737195611
H        -2.63521297040285    1.66722272269765   11.86929095722646
C        -0.94018505266290   -1.83754469163061   10.70958760972591
H        -1.84471225934017    0.10871993437326   10.42710280800404
H        -2.99321236802582   -1.24988664182644   10.36945994069769
H        -3.65303058890955    2.63186863551068   14.05209303064586
H        -3.48168782729420    1.01374319056479   14.74255656996299
C        -1.44781493300557    1.61875627359876   17.18710828899870
C        -1.90268589142037    3.88987689403465   16.51671700854572
C        -1.69719637141144    4.35797988098815   12.84809992390163
C         0.49667979836228    3.90034293869757   13.72833102902912
H        -0.65809509204744   -1.93409016778752    9.66360034331069
H        -1.21492670598349   -2.81847073854441   11.08987866298958
H        -0.07796142422259   -1.48294689528194   11.27984390338160
C        -1.66257480703685    1.96265528807883   18.50825014946204
H        -1.18201744972448    0.60122748827090   16.91187696669883
C        -2.11155326596742    4.22826218258176   17.84180351905464
H        -1.98648825137299    4.63909478078376   15.74205119050355
C        -1.19992697589669    5.49689333955491   12.23655165585007
H        -2.74153029988743    4.10828910245474   12.72897011918374
C         0.98471148372531    5.04191333861822   13.12324260986569
H         1.15273892400446    3.25690595929848   14.30476397219195
C        -1.99412680649363    3.26857724620613   18.83469303085308
H        -1.56893910018076    1.21713667891402   19.28338516527269
H        -2.36624569707836    5.24469920802230   18.10085433447079
C         0.13415931245235    5.84231027796284   12.37503128852989
H        -1.86058347874293    6.11874293391464   11.65133036528923
H         2.02565154460893    5.30718272217514   13.22991003944585
H        -2.15748359340604    3.54012379771799   19.86625098544231
H         0.51163980765258    6.73357936094464   11.89796135820949

