49
CSD_code = LEMCUE | q = 0 | S = 0 | Stoichiometry = C24H21BrNPPt | MND = 4
C         3.57718918679946   10.43704439994604    4.68715440105341
C         3.34828642315312   11.49037267924789    3.80674115417959
H         2.49551894348425   11.43150999319617    3.13156514225097
C         4.18300352653538   12.59188926236533    3.79947947627617
H         3.99883309876814   13.40621975359896    3.11469887189421
C         5.25314697183084   12.64919662394608    4.67755199687441
H         5.90939810774363   13.50685503958319    4.67505490607870
C         5.47560655920620   11.61252082969141    5.56974559444958
H         6.30236891738470   11.66597257153894    6.26320987083252
C         4.63897195936799   10.51071868811942    5.58274624747924
H         4.81038763923343    9.71719937203440    6.29605082846582
C         3.30671951892781    7.55632119589473    4.14140676845681
C         2.50446442366106    6.50296752002820    3.71571251305182
H         1.42901699750331    6.65518299698679    3.66194240991570
C         3.06998212541499    5.29754681121947    3.34932866886102
H         2.44443138446250    4.48159911768788    3.01885068667684
C         4.44658200213319    5.14249999882006    3.39939363552951
H         4.89477189863211    4.20387357294794    3.10879413987861
C         5.24964170148418    6.19250026218974    3.81165213929052
H         6.32297925747084    6.07256042127280    3.83915565425221
C         4.68418748905417    7.39987415614660    4.18514366814648
H         5.31611089610817    8.22226198138133    4.48937948015583
C         2.11725439577392    8.66588741373161    6.39051488671823
H         1.34846385260937    7.89584123436880    6.46041291692569
H         1.76890116375465    9.55416238265293    6.91533638131010
H         3.03864318081469    8.29539930974486    6.83945129549970
C        -0.60143088507571    9.32772636413907    0.64270423762778
C         0.80965488966755    9.06878102041216    0.39410381311772
C         1.64665866063938    9.12382642927991    1.52781149257919
C         3.01447474129115    8.98625785572504    1.32226942739146
H         3.70116397834948    9.06518924474364    2.15593216829880
C         3.53778267485156    8.75529004199434    0.06174924682447
H         4.60592760501655    8.64785822560059   -0.06420247755501
C         2.69820025506949    8.66102798466738   -1.03725099720399
H         3.10629006205745    8.47105234909035   -2.01921813405393
C         1.33874186601541    8.82935734783632   -0.87423513716861
H         0.69298554045997    8.78234595259644   -1.73884896423374
C        -1.60184861026300    9.28458877460709   -0.32816294542676
H        -1.35309093587321    9.01205222946084   -1.34072458217705
C        -2.90650201110754    9.58486744135158    0.00960226929486
H        -3.68738526491649    9.55169899083787   -0.73529639092404
C        -3.19033446670808    9.93063901038693    1.32234668797869
H        -4.19089200782164   10.17977220525367    1.63584081602817
C        -2.15756926939731    9.94745782362125    2.24129233146840
H        -2.35688741293449   10.21068075777706    3.27189883558479
Br       -0.64683821321203   10.10641659868595    5.25147059580444
N        -0.90090089868184    9.65305546407792    1.92107955722320
P         2.39353892075900    9.06050293374271    4.62058583706566
Pt        0.64839916049057    9.47437736576559    3.24237857794625

