66
CSD_code = LEMDEM | q = 0 | S = 0 | Stoichiometry = C23H37ClNOPPdSe | MND = 4
Pd        1.64951248593628    9.48873832913276    0.55587946450205
Se       -0.60475121595605    9.89502251401624   -0.09211964285438
Cl        3.79773437616208    8.91106579209207    0.98195190250283
P         2.60101979933923   11.17108991691356   -0.67003315951426
O        -0.83181540817089    6.53197506285101    2.23167139156007
N        -2.60496069562163    8.00814036825506    0.35461129223244
C        -1.33933640814728    8.33234589270462    0.61562682403384
C        -0.44527974562747    7.61443521879913    1.44895352808294
C         0.87911373929869    7.98327355761836    1.66771960746253
C         1.34018561797827    7.06970250553802    2.67051686214198
C         2.54746025005597    6.90313937112560    3.35555776543008
C         2.63398444882005    5.89998214658566    4.29390905553499
C         1.55079304000978    5.06264315473096    4.56955009436675
C         0.34334222144800    5.20607572773389    3.91457603734195
C         0.25459477173678    6.21495614066152    2.97114379321526
C        -3.22412677950981    6.75291132239623    0.70700090484841
C        -3.42684437381769    8.90435515982965   -0.42203527768456
C         1.51971273214506   12.35012844717350   -1.60322441216026
C         2.18366821409311   13.61913100643772   -2.12425056008754
C         1.27202757175260   14.36216994968734   -3.09993784759019
C         1.90662947022310   15.65898642468641   -3.58764490030019
C         3.76340825078474   10.53257817347553   -1.94027911812322
C         3.08397122713908    9.32453202769422   -2.59510644455587
C         4.04101121146166    8.47432257503656   -3.42733516571091
C         4.59607899108117    9.21883594951482   -4.63658226554629
C         3.55667882591392   12.21243951233654    0.50337779216153
C         2.65736120784483   12.41237584879336    1.72770937615431
C         3.38705744430384   13.07404294848737    2.89192007370715
C         2.48455154712181   13.20823918742092    4.11209488324738
H         3.38469496602055    7.54766104690157    3.13738797571763
H         3.55814023279805    5.75304983807996    4.83310748962408
H         1.65788079001957    4.28679429631390    5.31344184731791
H        -0.50045559128121    4.56686741670657    4.12415823043067
H        -4.03390000788352    6.92297691587099    1.42132037731849
H        -3.63915060904489    6.29032657180000   -0.19161972456607
H        -2.50401121688242    6.07558825488568    1.15216927366851
H        -4.46460006985543    8.58588203571351   -0.36398634566489
H        -3.33649954172808    9.92279589097034   -0.03553572400444
H        -3.10571597632610    8.91599213392028   -1.46809005699994
H         1.10388628909646   11.76805529607799   -2.43421998172691
H         0.67551258902558   12.59898080959356   -0.94863637979962
H         3.12117355289240   13.37334235257318   -2.62901122533792
H         2.41867653491502   14.28258711885806   -1.29001347049422
H         0.32294829854917   14.58370927306476   -2.60657763164755
H         1.05661577355433   13.71874947160261   -3.95610863747652
H         2.84387235049779   15.45654792508221   -4.10159334070680
H         1.24226763764388   16.17429011225054   -4.27696098504786
H         2.11246823415865   16.32215649302544   -2.75021086225431
H         4.02013301204744   11.30066189708424   -2.67220330718290
H         4.66738590904604   10.20788397251754   -1.41823935143205
H         2.25430592156106    9.66289504322263   -3.22377173616940
H         2.65826169750546    8.68873496066151   -1.79069936997686
H         3.50845254147087    7.58465788429362   -3.77141073646390
H         4.86443982492565    8.14195968580668   -2.79216445609207
H         5.20965227728315    8.55297208415508   -5.23889425538836
H         5.21352256418362   10.05897389194924   -4.32856660928944
H         3.78622122773494    9.59385957847073   -5.25959977385492
H         4.44093070495234   11.63453342040167    0.78804703601971
H         3.87182098289268   13.16218093037302    0.06615942536027
H         2.28844420704825   11.41403284210343    2.05805797526869
H         1.78572749358470   13.01520304873854    1.45130162913418
H         4.26103062220519   12.47315184553431    3.15117297149852
H         3.73903046049129   14.06271258832986    2.58508205611014
H         2.13265104540908   12.22867455506259    4.42842266668397
H         3.02238919647748   13.66454367318117    4.93964170034638
H         1.61811325724851   13.82548061316437    3.88272145270881

