61
CSD_code = LEMJIZ | q = 0 | S = 0 | Stoichiometry = C32H24NiO2P2 | MND = 4
Ni        7.10298627917135    0.30604201160894    8.90315438157965
P         5.54269079743936   -1.27909814751032    9.04214810699245
P         5.51193359856514    1.84302599240105    8.64241993730776
O         8.48885295347473   -0.49224303865024    6.45369002595241
O         8.27092639721936    1.18856208918547   11.43488354472585
C         5.24105009750767   -2.34690234593204   10.48775806765981
C         5.49625802691396   -1.77701577425522   11.73099441596638
H         5.89848475059406   -0.77125388627628   11.77311700632056
C         5.24975592838024   -2.48732697378277   12.89001762768176
H         5.45090863445271   -2.03979078528076   13.85239302186616
C         4.75211734880559   -3.77835065252109   12.81336088661761
H         4.56458995997942   -4.34008952508707   13.71662927660356
C         4.50065200906603   -4.35169330251247   11.57778774070018
H         4.11505090352522   -5.35941529753409   11.51866597267920
C         4.73981788559781   -3.64118680017706   10.41459255003600
H         4.54560916772208   -4.09698722159292    9.45351473343178
C         5.42013995344868   -2.43180287939327    7.64309564500450
C         6.34653086345583   -3.47218061727953    7.59866596079711
H         7.04421810548508   -3.59026786168264    8.41873159404372
C         6.37393005387023   -4.33418278527764    6.52021105022915
H         7.08867043065289   -5.14378771099259    6.49376995838929
C         5.48991413166833   -4.15241339130940    5.46741847610346
H         5.51261068441084   -4.82375805045352    4.62164907535058
C         4.58816297732544   -3.10208490731307    5.49379580857935
H         3.91005228722896   -2.95095696196712    4.66614588003143
C         4.55344541573833   -2.23775026847867    6.57446062207885
H         3.85650961059693   -1.41053147952127    6.58492480591164
C         5.15668271166864    2.72344484662596    7.08606166633949
C         5.38578104541134    2.00599524668639    5.91612992139436
H         5.80317264225976    1.00757972310347    5.98626311107849
C         5.09356023745618    2.56284769004949    4.68613809681723
H         5.27471251038680    2.00144940578657    3.78117203496787
C         4.57546411621448    3.84634734520308    4.61711072006002
H         4.35242209789765    4.28861664683813    3.65726835716956
C         4.34821152365728    4.56506853434367    5.77905028381419
H         3.94595960814861    5.56651235859549    5.72449286644802
C         4.63262237106246    4.00831018105250    7.01370052264318
H         4.45619991775419    4.57711413354724    7.91605826918919
C         5.38388766635237    3.14134657445106    9.90519847214656
C         6.26513486662514    4.21640102433223    9.80595562960630
H         6.93075303577651    4.27449262129658    8.95354550646017
C         6.29011032798120    5.18833114168856   10.78690975432780
H         6.96973933653039    6.02378378259320   10.70214162609848
C         5.45025125742242    5.08425435504889   11.88520936797067
H         5.47156975659128    5.84183874945292   12.65471811150262
C         4.59596310962182    4.00094284744777   12.00359293970009
H         3.95414129981390    3.91070239281588   12.86818767647710
C         4.56453050563938    3.02604035963719   11.02182948146229
H         3.90752108385380    2.17297905063489   11.12490182218724
C         8.00043799248384   -0.08609572963395    7.40565151209780
C         7.86591519092495    0.74111288037786   10.46243533427067
C         3.92941123429325   -0.42019009326837    8.98032088595083
C         2.72851029337009   -1.11165416865672    9.10476171458706
H         2.74130525243813   -2.18268471966565    9.25176766364162
C         1.52787772227112   -0.43085573545869    9.03773693263639
H         0.59711231950194   -0.97062877488377    9.13325337118762
C         1.51499053318285    0.94379880142873    8.84405718113392
H         0.57428217420139    1.47166410342409    8.78719141796862
C         2.70313913994912    1.63903564934555    8.72497818614495
H         2.69704991295491    2.70962986638804    8.57383836381597
C         3.91670795375356    0.96310948091921    8.80307502569653

