72
CSD_code = LEMJOF | q = 0 | S = 0 | Stoichiometry = C34H33NiOP3 | MND = 4
Ni        7.63402178719425    3.79041098898622    3.64334944878085
P         7.26134465815241    2.80324302920818    5.57677050201149
P         5.47881070666863    4.17175319713587    3.38917115435445
P         8.19752420582739    2.19272212129574    2.17529873122213
O         9.75053266009542    5.73481593186504    3.19034313506640
C         8.84885861387031    5.08390858578885    3.48191897723883
C         9.88057837749023    1.48387598243470    2.35351546102841
H        10.08800268569832    0.77546011400135    1.55207479984069
H         9.95021161640112    0.97958227835429    3.31613915710024
H        10.61126359110797    2.29070895659001    2.32992825710357
C         8.24135534262565    2.70006891235586    0.41246107968664
H         8.59795648232595    1.88398988465713   -0.21529133883773
H         8.89888852516399    3.56120045568594    0.30560970450141
H         7.23749687880822    2.98844783807454    0.10427343897595
C         7.22786861936842    0.63968287959461    2.02022776467241
H         7.65831371938593   -0.00009846600220    1.25065723631206
H         6.19904513505742    0.88335054731833    1.75989583854799
H         7.23158456268166    0.11651419261194    2.97510563192703
C         7.89938793791215    3.44132299580719    7.16387564898154
C         8.14170236254408    4.80994346967098    7.20993753784367
H         7.99480257243583    5.39135063460333    6.30616222821755
C         8.57604544406436    5.40806357521297    8.37696782880059
H         8.76156467417709    6.47207233119551    8.40530520847972
C         8.78092573930289    4.63659499838540    9.50954778674754
H         9.12577725667657    5.09742982182352   10.42375647142281
C         8.55119325029639    3.27129586662719    9.46752939710666
H         8.71731101050595    2.66894016398635   10.34949902207083
C         8.10878398485601    2.67121561345125    8.30178479584779
H         7.94050181462401    1.60318673346143    8.27695468844203
C         7.48367318373376    1.00912936291261    5.77470469364839
C         8.78681845482675    0.54681730326223    5.95074985638274
H         9.58846812758554    1.26816051334374    6.05242343891607
C         9.04867582084857   -0.80850610553898    5.99774818615043
H        10.06033531781503   -1.15981185443255    6.14341037892983
C         8.01260829949712   -1.71876882484253    5.85219307232108
H         8.21556516157325   -2.77914478015440    5.88710447666413
C         6.71895268969599   -1.26640345902947    5.65305826148650
H         5.91256052449180   -1.97531271902143    5.52868873722149
C         6.45331085956302    0.09135713507378    5.60731070773983
H         5.44354105519848    0.44018768251851    5.44005481414026
C         4.76632664464808    5.85129343398441    3.31908369829061
C         3.54873028216913    6.17271527338621    2.73079956555818
H         2.97010773955589    5.41335716569171    2.22267888105731
C         3.08285707536699    7.47472527585791    2.77956778181923
H         2.13768620091070    7.72229256981156    2.31732772173636
C         3.81983234980916    8.45957180972304    3.41646965779771
H         3.44870452102408    9.47356567712770    3.45042804990579
C         5.03559490214737    8.14467177313438    4.00168677944625
H         5.61587152044329    8.91264942871750    4.49242383360956
C         5.50608042664066    6.84689966775788    3.94784972464535
H         6.46485061203297    6.58245050676592    4.38075403914687
C         4.50701883762995    3.29588204814235    2.12595624256822
C         3.83926460023795    2.10270875684502    2.37643459364480
H         3.80540447194342    1.70615288388321    3.38196796934961
C         3.22031533556368    1.42287915009800    1.34168586911147
H         2.69704157539035    0.49898386168687    1.54393072407064
C         3.27341724076977    1.91898550715973    0.04979190462173
H         2.78910005142273    1.38553561212094   -0.75497974475227
C         3.95692747077656    3.09708010312495   -0.21078885995136
H         4.00780402406974    3.48057507167827   -1.21997051025810
C         4.57717849434521    3.77655914213536    0.81952077191714
H         5.12310275096758    4.69207607320772    0.62715135163753
C         5.47120249718237    3.00333314725688    5.91332664242722
C         4.89561650491495    2.58300420542959    7.10777378013076
H         5.51231625213240    2.11940184779938    7.86490316276402
C         3.54239143750778    2.75806464559015    7.32659558476272
H         3.09963332403042    2.42853354258504    8.25543634765751
C         2.75289159470319    3.36037251064643    6.35733355343445
H         1.69570474350520    3.49922483182275    6.53182880634028
C         3.31748598842147    3.78786973504746    5.17064965828934
H         2.70388929446910    4.26296573448476    4.41825398815445
C         4.67738752526672    3.61026111897563    4.93891221395624

