99
CSD_code = LEMLOE | q = 1 | S = 0 | Stoichiometry = C43H52IP2Ru(1+) | MND = 8
Ru        3.48404027526565    4.57377623611545    1.89738117941075
I         2.61046231407796    5.50842352245947    4.32901108079319
P         1.63158985078229    5.42245474289988    0.84299984818947
P         2.20634006541309    2.65102834619102    2.00249701956341
C         0.20124046588333    4.29961467139780    1.19530097366116
C         0.71187665324772    2.88632986363572    0.93547934744841
C         1.51634395445854    5.48468303827127   -0.97192327136306
C         2.26217896322823    4.58851618659673   -1.72853602219537
C         2.13507804691141    4.55698079886213   -3.10514889824243
C         1.25798101374816    5.42436423661013   -3.73491962632030
C         0.50237837689901    6.31214852143636   -2.98505669344795
C         0.62290922412339    6.34268584920901   -1.60798942711957
C         1.07325126971436    7.08446954907389    1.31753931055956
C         0.04223739258923    7.33489932701650    2.21644795544459
C        -0.26812236965734    8.64039825895618    2.56064161898185
C         0.45289041824013    9.69682995608016    2.02881392520784
C         1.49394015862467    9.45183560498344    1.14546953882131
C         1.80525554819338    8.15207530672262    0.79528007223048
C         2.82799131319719    1.04780147523554    1.41498896202500
C         2.77406878514817   -0.10879404182602    2.18515937528369
C         3.26277840604819   -1.29846730564401    1.67285478568509
C         3.80876950120834   -1.34213742505769    0.40052294939675
C         3.86740221873032   -0.19016995853078   -0.36862865193638
C         3.38141004774749    0.99942437748826    0.13775130776022
C         1.50723762005188    2.24596289651808    3.64287340186925
C         0.16400659013145    1.99226808126025    3.89839606717111
C        -0.25335874654095    1.69915672434609    5.18640268643465
C         0.65652209997334    1.64923063706982    6.22806618122832
C         1.99759264371157    1.89756602679587    5.98290830843595
C         2.41674648844675    2.20015479514257    4.70163475544781
C         5.40204175953102    3.65907284792034    1.14314892115103
C         5.04987142541683    4.77080624803808    0.32295466731420
C         5.09561128045512    5.93914365841842    1.13522344955273
C         5.45023888762279    5.52918078782322    2.43672908168718
C         5.65794119205885    4.11085251696981    2.46269042025611
C         6.18214559923790    3.32283235133507    3.63873018004775
C         7.65856447809479    3.63093905022943    4.00563533614816
C         8.56323864680951    3.06906430701530    2.90804528846080
C         8.44920723302126    1.54880629214462    2.87505140831337
C         7.02560166063924    1.11364847844270    2.54170423629162
C         6.01630870713249    1.80105967741103    3.46706270372926
C         7.94689230492585    5.10747838596504    4.33967381515542
C         7.09328018151133    5.58928190552469    5.51686975579234
C         9.41591839478616    5.31842049221751    4.71697566099287
C         6.87536869818447   -0.40171879519450    2.65150449641032
C         3.07968555769487    7.65313107272528    4.25669289365517
C         2.20913637598095    8.45582486784702    5.19328763035645
H        -0.65200622786345    4.55964319032208    0.56138837777437
H        -0.07546566459504    4.40203861390055    2.25198531649077
H        -0.03866234906193    2.11616853698252    1.12882830127422
H         1.03332446548671    2.78530501541101   -0.10723801474059
H         2.94494295528174    3.91778348226762   -1.22224615484151
H         2.71873719869324    3.85891291669254   -3.68655135992501
H         1.16095872083910    5.40760686057503   -4.80939435271315
H        -0.18663174270486    6.98282374453535   -3.47548441528624
H         0.02711746307761    7.03314960373236   -1.02776417320805
H        -0.52549407330693    6.52054623191291    2.64199672720285
H        -1.08096266888733    8.83270098169168    3.24496676717192
H         0.20390660282271   10.71092141176186    2.30025229692471
H         2.05740347018429   10.27351115865617    0.72973578372239
H         2.60848171630756    7.94568030797347    0.09777675911750
H         2.35383323162692   -0.08021989339574    3.17978444773094
H         3.21807015179993   -2.19487243627374    2.27268959774255
H         4.19242055236487   -2.27161858716680    0.00924224401841
H         4.29377140175321   -0.22229309782913   -1.36004175507010
H         3.42864654866992    1.90429933379257   -0.45468167704959
H        -0.57079109572601    2.01481634211479    3.10861289322488
H        -1.29901241536217    1.50661691128694    5.37335745502509
H         0.32225082154948    1.41719509354238    7.22713813225388
H         2.71410422600626    1.85652989983611    6.78859794123876
H         3.46408283696757    2.38721946021849    4.50438676239224
H         5.53607711814975    2.65456575774138    0.77144776572623
H         4.99199820472973    4.76563293666337   -0.75706039157899
H         5.03794007945120    6.96033676801816    0.78359077662706
H         5.63126030016847    6.20788830132501    3.25807427960386
H         5.57295401926090    3.60501610502454    4.50880670667331
H         7.85993017510402    3.06069623303450    4.92091062093197
H         8.28113105428656    3.49077001488720    1.93972331675914
H         9.60117649388473    3.33293278126649    3.09988808943693
H         8.73531493469461    1.14763397983457    3.85005582760583
H         9.13751238828514    1.13852770650669    2.13391640182621
H         6.82966519346210    1.39040545886190    1.50224356110155
H         5.00482019843472    1.58482117199367    3.10381149208604
H         6.11161839471386    1.34695970634033    4.45690333170282
H         7.74326169026542    5.72120284558632    3.45567564158097
H         6.02434086484588    5.48680565538787    5.34025783346036
H         7.30038747152501    6.63727928750948    5.72465122836566
H         7.33810022164835    5.01601571711039    6.40826312342544
H        10.07189305338259    5.22739409429505    3.85647848635426
H         9.72483220681512    4.59837880778855    5.47115653987213
H         9.55076079565126    6.31685937896657    5.12665509881365
H         7.56497062213712   -0.90000948015414    1.97467038098020
H         5.86218032359522   -0.70682792476009    2.39721785921923
H         7.09178384892409   -0.73484721427990    3.66405233893358
H         2.93431301555712    7.93721875483667    3.21638708840135
H         4.13100863786803    7.72990431379327    4.52630783863212
H         2.48485990877981    9.50584192365488    5.11045937017231
H         2.34958231427161    8.14108760395379    6.22436204797655
H         1.15810937138145    8.35490978813571    4.93605743910507

