90
CSD_code = LEMQUS | q = 0 | S = 0 | Stoichiometry = C43H44N2Ti | MND = 10
Ti        5.14031114267206   15.54744098689002    8.85445357215790
N         6.81537089127842   15.11868074731432    9.60540681824530
N         5.49678970164538   17.05359984573285    7.75544275112200
C         4.83589994799717   13.81142070084161    7.37231376801978
C         3.78011959889379   14.76691653649066    7.20605375686325
C         2.97966099256342   14.74815235701483    8.37903854543540
C         3.53906183794621   13.79344074842554    9.26977731237642
C         4.67737223582109   13.21764714247912    8.66024268122152
C         5.57157161737783   13.19393756153350    6.21415731280517
H         5.81057235701483   13.92635892409370    5.44396174326691
H         4.92340818699079   12.44128740927080    5.75433279118643
H         6.48462359701228   12.69066065871237    6.52362854015997
C         3.44474419987479   15.42975472933539    5.89884834480644
H         2.75623681031810   16.26191671085558    6.03675083555806
H         2.97371648287442   14.70479295025240    5.22881876624918
H         4.33998940684214   15.81341503553115    5.40643263914705
C         1.61428694207036   15.35563193446079    8.53573894208844
H         1.46193788768564   15.77873525698938    9.52860687900832
H         0.85856724265803   14.57927149587305    8.38850081505401
H         1.44014433790552   16.13741417565152    7.79999507723555
C         2.88739062595456   13.26451933271968   10.51528527921703
H         3.62323955296845   12.96004481697632   11.26042272023610
H         2.29269024469360   12.38158251857631   10.26447746250835
H         2.21594852818398   13.99518262549644   10.96156505804768
C         5.37153884305468   11.99411375276403    9.18587887602737
H         6.22891351804462   11.72741063748176    8.57413717025207
H         4.67360121352377   11.15272215523986    9.18026552283404
H         5.71974282712375   12.13103105659139   10.21132398886066
C         7.73936782136541   14.10501025709059    9.78377637266585
C         8.17425414684032   13.78002816696062   11.07655420581478
H         7.78807477976172   14.34700992655902   11.91465456939654
C         9.07305241046065   12.75396180655973   11.28008774367390
H         9.39088300001029   12.51460007832097   12.28479592217698
C         9.56940812928635   12.03188996309695   10.20623462419234
H        10.27462714673668   11.23082962807069   10.36847394577887
C         9.16299377134232   12.35622390479863    8.92200853922891
H         9.56234223607421   11.81108341849602    8.07801120130359
C         8.26102107512613   13.37944185237940    8.70838195342729
H         7.97384056976339   13.65954871088755    7.70634825380243
C         6.98715251256428   16.30537226152285   10.27919834010144
C         8.30655201590636   16.86094344515370   10.53564535808608
C         9.40929996181978   16.55048200492435    9.73197636623555
H         9.27572629382368   15.91912484675552    8.86781620006138
C        10.65902900846810   17.06043382138702   10.01189066101760
H        11.48719224695178   16.81032958856567    9.36367972637043
C        10.87081303306020   17.89069703548616   11.10516499633421
C         9.78412624707888   18.18145658596967   11.92455252493926
H         9.92954704238221   18.80735153064987   12.79452235195843
C         8.53138655784217   17.67574294456484   11.65506290701674
H         7.71501549445508   17.88763846307527   12.33130795467708
C        12.22301966764325   18.46370090432771   11.40316909850542
H        12.98661800338414   17.99853945934990   10.78465134518535
H        12.48146755903856   18.31541607981974   12.45066840220324
H        12.22965233064368   19.53670500583834   11.20844720941432
C         5.78603438304895   16.95475819302923   10.67808948663399
C         5.65857899916835   18.36604476029860   10.82193999319415
H         6.51820070489930   18.98715823959330   10.60963661805205
C         4.48646544264243   18.93331126978592   11.22223277096512
H         4.41076873316858   20.00734942783427   11.31618328197737
C         3.35236588548808   18.14758317237087   11.54241492357901
C         3.44627831755361   16.78378491656844   11.41510537675227
H         2.60911164201790   16.16521518361442   11.72005689522475
C         4.60616056758697   16.15944912206417   10.91530931877384
H         4.77125342644811   15.10208969435064   11.15655191730591
C         2.10330875653690   18.82025915232623   12.02333983550440
H         2.29893901578297   19.38129366188140   12.93707813079388
H         1.31906585264528   18.09405941750974   12.22527017465445
H         1.74265248374842   19.52499499912785   11.27416423572129
C         6.81385802193051   17.28453274722061    7.37453649264775
C         7.53774167663385   16.29489048182145    6.70236688227322
H         7.03692559979482   15.36406735171348    6.46990223790841
C         8.84733836123503   16.51424888238050    6.31907039719589
H         9.38790171227617   15.74090609531138    5.79075956891198
C         9.46827676922895   17.72029780528555    6.60186665715214
H        10.49176516292124   17.88931071476323    6.30351479272855
C         8.76410655214371   18.70802190916730    7.27183907120372
H         9.24273591735066   19.64881810264065    7.50231823178994
C         7.45261558530139   18.50182879304929    7.64815642753209
H         6.90014441966889   19.27903738704329    8.15944949737762
C         4.56503241373040   18.01458981498223    7.44820240747779
C         3.37505658282243   18.09745521483941    8.18631642072188
H         3.24333270347663   17.43509452832712    9.03207849232135
C         2.39703774860750   19.01460001415282    7.85971660709608
H         1.49048401818337   19.05739898246263    8.44803729247897
C         2.56952179076913   19.88248398736365    6.79316596772405
H         1.80526501747213   20.60271507777991    6.54320841075528
C         3.73819000821278   19.81205389230926    6.05041871069359
H         3.88202058306449   20.47647373303167    5.21011670756052
C         4.72006780176100   18.89600213178656    6.36293833521663
H         5.61748350986991   18.84157664799370    5.76180868853734

