83
CSD_code = LEMQIE | q = 0 | S = 0 | Stoichiometry = C43H35NP2PdS | MND = 4
Pd        9.23956370607051    4.53392411522932   17.97717329397435
S         8.84182319274117    6.12420082520584   16.25293850011911
P        11.16975654936983    3.92067443659111   16.96993108353130
P         7.38051238694256    5.43951122629804   18.86874358001748
N         9.63351697300872    2.41280644021468   20.21541500062825
C        11.29493291358856    4.15509593811245   15.17434644046932
C        11.02674851395403    3.10114038515376   14.30677801991812
C        10.96079701883609    3.32762885120433   12.94445954220951
C        11.14996380114347    4.60428050126914   12.44245427716670
C        11.41468072455043    5.65667945474878   13.30344740603731
C        11.48119929993440    5.43914720342901   14.66655740683490
C        12.49503565411141    4.94443066520460   17.67123937113840
C        13.69121704987015    5.20541660627920   17.00886130785712
C        14.65192052701268    5.99732596179063   17.61142163724821
C        14.42655279771148    6.53306099995994   18.86971328499542
C        13.23739461423264    6.27620329441910   19.53287812307417
C        12.27299191379700    5.48388638778782   18.93667150157467
C        11.72768683185148    2.20386383344689   17.19157211328924
C        13.06574228525418    1.84595706990150   17.29252624913590
C        13.41034172218391    0.51421237553645   17.44034635616587
C        12.42774333108347   -0.46102791572134   17.48322277230045
C        11.09183230201351   -0.10683154081524   17.38506130309861
C        10.74191286119812    1.22225514914730   17.24403898000757
C         7.68748279414332    7.18377404917192   19.25615302418196
C         6.66790962680242    8.02670975312743   19.68630239329083
C         6.96014033328299    9.33605100259427   20.01965481819627
C         8.26432818127384    9.80043600871944   19.94093539447792
C         9.28358758243958    8.95616955634747   19.53113277786495
C         8.99729367125204    7.64688678832246   19.19077032126363
C         6.65857453967117    4.90762752806264   20.45325569179440
C         5.30284746609370    4.68938283875187   20.65917505422340
C         4.85140337375457    4.32994730040085   21.91735653482517
C         5.74411688034296    4.19356438668859   22.96703001993068
C         7.09697900606120    4.41989633966495   22.76497631657199
C         7.55305537753381    4.77663293028443   21.51171332841048
C         6.01583077989538    5.34407803883750   17.68355708735367
C         5.57037533521327    6.42278166311410   16.93073717776265
C         4.64050864305288    6.21618776687544   15.92715489506879
C         4.16114172676528    4.94276926857483   15.66758578567413
C         4.60872304735564    3.86364519212542   16.41301174413993
C         5.54080051353238    4.06068677897940   17.41345105822545
C         8.20912804068783    4.96021036151101   15.12573797615022
C         7.93698703443442    5.36468228996891   13.81854910160760
C         7.45877600734518    4.46151505909373   12.89474793557658
C         7.24016575262664    3.13937987215576   13.25216045148166
C         7.49626227788480    2.73243775734985   14.54963536643982
C         7.97463755540447    3.62965032595548   15.48580275075923
C         9.49892467072040    3.20557953583282   19.39501367747505
H        10.86546681568067    2.10639772599438   14.70045087876525
H        10.74816034737364    2.50739353406621   12.27482579663715
H        11.08475258861117    4.78061027669777   11.37891872117718
H        11.55513163689877    6.65416863940037   12.91341917579070
H        11.66278280941919    6.26345507042336   15.34297616774309
H        13.85976680773212    4.79895348687809   16.02040753007762
H        15.57964007167030    6.20022632398137   17.09623299393456
H        15.17916764947276    7.15449546345352   19.33215651848994
H        13.06220059396947    6.69502919799238   20.51304996621302
H        11.33630890547832    5.26296392821689   19.45922564496719
H        13.83372849939085    2.60606401309456   17.26893064171219
H        14.45093160784547    0.23685458667143   17.52633506513637
H        12.70330567255816   -1.49848831805869   17.60213551455263
H        10.32480804277733   -0.86570165552750   17.42889143970840
H         9.69593407524283    1.51192996710516   17.19026948359206
H         5.65540344490404    7.65188790342690   19.75715816458210
H         6.17026295116652    9.99753848705060   20.34487084171977
H         8.48560248309414   10.82482519373419   20.20251857600141
H        10.29927570212906    9.31955680897725   19.47449473109157
H         9.78930826974726    6.97370394334912   18.84996917852236
H         4.60407867305310    4.79411094719993   19.84019171822547
H         3.79725500832148    4.15465531302079   22.07736154666944
H         5.38521243353852    3.90770705193491   23.94476621025515
H         7.79343743403382    4.31106090327811   23.58274342306338
H         8.61014253468937    4.94429196434745   21.33243125559533
H         5.96997425911846    7.41027978508632   17.11408679482184
H         4.29876487660978    7.05255832005296   15.33512373801352
H         3.44488121764038    4.78835177147206   14.87424530626923
H         4.24354363031885    2.86934023854594   16.20176731170963
H         5.91831769524051    3.22455912116676   17.99600725883705
H         8.11493492461001    6.39486609480168   13.54718434643962
H         7.25629210840094    4.78800671258838   11.88450038221354
H         6.86871397370217    2.43315491607962   12.52441201775761
H         7.32101631223704    1.70510325458449   14.83887325869409
H         8.14674875528116    3.29176437222758   16.52527016748560

