63
CSD_code = LEMRIF | q = 0 | S = 0 | Stoichiometry = C28H29Cl2CrNP2 | MND = 5
Cr        5.76074690449839    2.57081776097116   14.47221840640555
Cl        4.22951971453596    3.84127766099077   15.42970204238639
Cl        5.08086222049292    0.78904356338783   13.14293248206474
P         6.03057507183890    1.22075230699693   16.29944624290301
C         7.50870341440194    0.19527681748628   15.83031870515518
H         7.99740443084363   -0.23256377848464   16.70930316017988
H         7.15546256093600   -0.60619009267622   15.17450161449195
C         8.45800862555056    1.10678189999858   15.05785988271401
H         8.84964325525462    1.88808567153732   15.72263143567731
H         9.31279248919605    0.52932992192622   14.67168745627405
N         7.72421385603458    1.74695218868566   13.96653306436088
H         7.32343595543266    1.00262944922636   13.38204506234273
C         8.54590597744172    2.59354515378676   13.10479652656799
H         9.42102065495451    2.04282089490476   12.72525817635804
H         8.91000086029825    3.44520635556122   13.69561493658855
C         7.68934870118166    3.09393564498326   11.94753554216680
H         7.33676955591544    2.24521108499648   11.35589669870725
H         8.25553591762973    3.76606102827325   11.30051790914476
P         6.19120584729564    3.93404571628316   12.67665629268451
C         6.74671117030761    2.16271759910451   17.68876303981529
C         6.88735673074436    1.65149434766302   18.97373471330179
H         6.52748738695911    0.65696321014462   19.19854256967204
C         7.47333688909825    2.42263867075441   19.96116343310511
H         7.57613683638487    2.02735714796120   20.96118572449189
C         7.92447662203538    3.70096758413217   19.67357236836097
H         8.37715293068667    4.29967184363818   20.45003436917740
C         7.78878672361668    4.21479363208841   18.39388045526434
H         8.13503242021186    5.21323109767498   18.17013363856366
C         7.20107336656561    3.44652194219848   17.40658798851268
H         7.06564289057855    3.84170395244424   16.39965457922974
C         4.94627196048733    0.06218386769323   17.17991786364925
C         5.10567927657292   -1.31738803285307   17.23773452443908
H         5.95822008608152   -1.79199280266009   16.77496945996826
C         4.16499186984838   -2.09007764725143   17.89734100621847
H         4.29289804056116   -3.16198992465423   17.94583355416946
C         3.06292353337657   -1.49828592663160   18.49058822757688
H         2.33383899890339   -2.10873293782826   19.00289283124447
C         2.88855563687234   -0.12437795843602   18.41703070235069
H         2.02217348464646    0.33595382110545   18.86839815610308
C         3.82063502906951    0.65136141255567   17.75759234777641
H         3.69265298438963    1.72431274009914   17.67374705373336
C         6.88321112926174    5.58848850951456   13.02178047648628
C         6.71012338240533    6.11940293062142   14.29536183535523
H         6.11632377486865    5.57359000956865   15.01931633602519
C         7.25721113236924    7.34846887502643   14.62129745858203
H         7.11110345134017    7.75767056695181   15.61007694079865
C         7.98445334485770    8.05425003776860   13.67785410783097
H         8.41572457586100    9.01173213798661   13.93066590434591
C         8.14889278742438    7.53739501031723   12.40201078331265
H         8.70252415961787    8.09569649530231   11.66067356939939
C         7.59996044033460    6.31276073552627   12.07196416353602
H         7.70906711113835    5.92670081209803   11.06749929497936
C         5.20080698502294    4.22348365995401   11.17791228607762
C         4.70743142593690    5.48338238991165   10.84917393140215
H         4.97324014414607    6.34062805612360   11.45225140895172
C         3.87724027614312    5.63858641353750    9.75407594659877
H         3.50648354473094    6.62062009490376    9.49794017515351
C         3.51450936363225    4.54023276513211    8.99241155452992
H         2.86701036611414    4.66569314255865    8.13694984850853
C         3.96602487105772    3.27744398598547    9.34225786936021
H         3.66126385337451    2.41593857280806    8.76625328492251
C         4.79591846801715    3.11507844214160   10.43485540066269
H         5.11118453062033    2.12510946846432   10.73406317930169

