70
CSD_code = LEMRAX | q = 0 | S = 0 | Stoichiometry = C31H33Cl2N3Ru | MND = 5
Ru        4.79735944728804    7.01326249097175    4.86441144355782
Cl        3.59681778025267    8.75485371242626    3.96928779656986
Cl        6.58516394364722    5.67211587275020    5.39157216464618
N         3.17218357070858    4.54035859992904    3.88370931657045
N         4.46106669792166    5.51611355686802    2.45611628086183
N         5.76523579251850    8.44907465572519    5.91093885016916
C         3.98845010046878    5.57029141823802    3.70460547779035
C         3.03239417960714    3.70087740218583    2.69454923011742
H         1.98640637263045    3.67297206530888    2.37284647486475
H         3.34748623731631    2.67676700919158    2.91337685285196
C         3.94904433881679    4.39472242968722    1.68143789029755
H         4.77178775520287    3.75349602179034    1.34953053500353
H         3.41158789364430    4.75099090094461    0.79699732041492
C         1.18724221720343    4.93544825153476    5.21828274915201
C         0.42455302766399    4.63212121528290    6.33528049359148
H        -0.51714106972210    5.14068400520947    6.48493408450599
C         0.85170107780595    3.70010590771223    7.27209012126476
C         2.08091629783721    3.08304305168993    7.09073402530427
H         2.43622989257377    2.38019488220212    7.83066461548619
C         2.87462019397881    3.35886869569260    5.98653803255483
C         2.40213563166559    4.27015078540905    5.04312456473348
C         0.76362836787363    5.99744081020577    4.25177888161873
H        -0.19847677555351    6.41450792001222    4.53536956660929
H         0.68606509317005    5.60516635680963    3.23867437181028
H         1.50521869958136    6.79999454836450    4.24934941152448
C        -0.00474058095846    3.36983216210949    8.45684179621024
H         0.59398218590803    2.96608274614756    9.26950567082925
H        -0.74877384935560    2.62219418065375    8.17989712881752
H        -0.53358777819959    4.25213852199953    8.81035656186867
C         4.23074880519774    2.74543639773968    5.83203081644421
H         4.26512254367422    2.06667216900575    4.98038094625704
H         4.50212933430149    2.18749731985508    6.72379878361871
H         4.97102197144281    3.53071610644270    5.67181458475717
C         5.30443890240665    6.53231987989994    1.92425584370855
C         4.72113713121752    7.64616295840494    1.30123794919425
C         5.54730509818592    8.67492281134123    0.88013723203326
H         5.10517906487091    9.54873168288642    0.42379972564409
C         6.92609671440698    8.61571111465054    1.04505354648980
C         7.48405472830244    7.46279915712816    1.57268941685839
H         8.55886864656548    7.37548014434959    1.65358325760230
C         6.69538253817191    6.39834248548017    1.99796376466924
C         3.24819837881942    7.70413706934358    1.02833906928643
H         3.04047216690599    7.25404386921289    0.05547134609001
H         2.91026520351465    8.73561256096537    1.00840657417930
H         2.68036983207691    7.17879927562956    1.79076280443123
C         7.78229070588393    9.77150233142668    0.62357790482874
H         7.63074854227294    9.99043717720547   -0.43298529786580
H         8.83618450879791    9.55892389892656    0.78788718748376
H         7.51330980595247   10.66415749055923    1.18802103305755
C         7.34963568660924    5.11191213388462    2.40398619780477
H         6.68516337049222    4.48350881228523    2.98991535237309
H         8.23965760594886    5.30285519274151    2.99822270601946
H         7.65046616829601    4.57010849293210    1.50467238792753
C         3.83398690460908    6.81349703686252    6.50089256350256
H         3.02004807180584    6.12516567981212    6.73928585566926
C         4.26107114035865    7.67891589679943    7.53135762499396
C         3.76529828242013    7.75503455253876    8.83314028336605
H         2.96185041886781    7.09861502264006    9.13327414065982
C         4.30156779992612    8.66705466465497    9.74019054402457
H         3.89939258049171    8.70408802001159   10.74257482772812
C         5.32600043315863    9.51918399032152    9.39456447812247
H         5.72722126954308   10.21906708366436   10.11237087639753
C         5.86739726913023    9.48917154380640    8.09251144131039
C         6.91358959957187   10.31158399303853    7.62442172643492
H         7.36268823981830   11.03605130679023    8.28819228423579
C         7.34303689091133   10.17487896947055    6.32782854714569
H         8.14046660193649   10.78843122195194    5.93768411116113
C         6.74021204380666    9.22524416469504    5.49400609462374
H         7.06165822091090    9.09990822945828    4.46404374483847
C         5.32531003692933    8.56384791412535    7.17493601328504

