70
CSD_code = LEMREB | q = 0 | S = 0 | Stoichiometry = C31H33Cl2N3Ru | MND = 5
C        -1.98601493335351    1.05851523363852   11.66538421380456
C        -2.05443732242676    2.23527396930829   13.66936621793663
H        -2.96441020675186    2.69194312089756   14.07191745696692
H        -1.19437874658190    2.79422076996117   14.04569106799536
C        -1.95089363270338    0.73671745471304   13.97651566400248
H        -1.04304415214183    0.48938630260919   14.53296483133122
H        -2.81303167821023    0.35595036935339   14.53421447118983
C        -1.16989980294677    4.33692678846777   11.28421595856773
C        -1.38938749856890    5.52324335219051   10.59640509866280
H        -0.55113670494544    6.17904423193975   10.40913900039253
C        -2.64665771914895    5.87897255873892   10.13532296331934
C        -3.71263378518893    5.02309878022445   10.37932518955745
H        -4.69770258453565    5.28750278953537   10.02240407357067
C        -3.53738463739264    3.83171185283715   11.06176937944710
C        -2.25742374134592    3.49120513159861   11.50617532207826
C         0.20186340195022    3.96910591084776   11.74926084405803
H         0.94239057871288    4.62811948634997   11.30516980021571
H         0.43451841052594    2.94176922539206   11.46541774552999
H         0.28204587427558    4.05388074350658   12.83275299905061
C        -2.86666227286580    7.16236570677476    9.39402311320912
H        -1.92226260502454    7.59679031195149    9.07701427484676
H        -3.37696686183274    7.88199708174828   10.03428804283308
H        -3.49125835599911    6.99601327062753    8.51848750592473
C        -4.69853912988687    2.91532677843366   11.30486669716471
H        -5.59281850061809    3.29566881492952   10.81889179818834
H        -4.90015628259975    2.81410559221772   12.37126188904171
H        -4.48058491481134    1.92690804784989   10.90204160446538
C        -1.95287226968426   -1.25081119493951   12.38416583860784
C        -0.77780152903641   -2.01380689074532   12.37804240215120
C        -0.87328323870179   -3.35687605682431   12.04038521743202
H         0.02975909276780   -3.94825508191743   11.99685761350397
C        -2.08972563612030   -3.95866047292310   11.75455577451365
C        -3.24775093337556   -3.20195519587420   11.86432911193785
H        -4.20826281766833   -3.66912374434808   11.69417149651882
C        -3.20079561520197   -1.85283129075958   12.18286164033221
C         0.53862478441762   -1.42185703580832   12.76484931378759
H         1.33313057305634   -2.15224822160322   12.64014768466189
H         0.52141477232660   -1.10546732049410   13.80795838592663
H         0.77102957301054   -0.55115778486268   12.14842010746519
C        -2.14537795880613   -5.39525155403388   11.33797495659776
H        -3.14759717259120   -5.80047258460669   11.45575759679469
H        -1.44867576749578   -5.99477871482705   11.92002290843665
H        -1.86237547313179   -5.48022374090330   10.28854930041153
C        -4.47313388905106   -1.07281080275185   12.35830549365664
H        -5.30977896574704   -1.59197857837920   11.89773417248542
H        -4.39657065592556   -0.07962757963819   11.91986010433754
H        -4.69318098686614   -0.95939122016687   13.42113735046991
C        -1.75679115419385    2.07770512731074    8.89317733740390
H        -0.95338551933577    2.79350136102437    8.69660423440690
C        -3.00846224145479    2.29886990526221    8.27314642598117
C        -3.41686879325175    3.41872447363164    7.55191741727556
H        -2.74091470638858    4.25308528571901    7.44191090541420
C        -4.68764209443797    3.46297623262084    6.98306916213408
H        -4.98737220864183    4.34651528475758    6.43764467697084
C        -5.55919586945677    2.40170344953259    7.07692230538072
H        -6.52971732588169    2.44147855987689    6.60534442946360
C        -5.18728461126894    1.23314216867207    7.77303610851213
C        -5.97571579278845    0.06711014714601    7.87278876830581
H        -6.95073626788446    0.03708671879699    7.40943763169663
C        -5.46602891915757   -1.02126181243150    8.53577731949661
H        -6.02225112894434   -1.94382034701079    8.59885226097815
C        -4.20967387802700   -0.94327744615386    9.14606498034895
H        -3.79411235880305   -1.79316975203302    9.67120409492266
C        -3.92188684169118    1.21021330218992    8.39918081430319
N        -2.07951269484109    2.26898042044566   12.20886732724365
N        -1.90672178615954    0.15102810467662   12.64390799513259
N        -3.47367778824737    0.15156075440517    9.11328520316900
Cl        0.63431868827226    0.82683440823986   10.28879092898589
Cl       -1.03931448973489   -1.32734177785760    8.51795321715294
Ru       -1.58966029940119    0.42447682096136    9.80214276192255

