91
CSD_code = LEMSAY | q = 1 | S = 0 | Stoichiometry = C38H48NNbPSi2(1+) | MND = 12
Nb        3.99795898855065    0.81105245155804   16.55600047818483
P         4.83122055503016    3.10482917428667   15.72944366566507
Si        2.30671773189888    1.04028539884537   20.27698311403406
Si        2.63909592979730   -2.33605207020941   14.71613975983455
N         6.19512591453374   -0.14952782965562   14.42090541238995
C         5.40691585083018    0.23107680222403   15.20857292444512
C         7.18503351104603   -0.35930296231770   13.52606701129579
C         6.87014765951790   -0.50009737972818   12.16600582238194
C         7.90922521275117   -0.70005474572542   11.27350765580059
H         7.68590341670206   -0.80832719149395   10.22309550023484
C         9.22218136747253   -0.76433115392770   11.71012940665550
H        10.01844802997739   -0.92141683906729   10.99996021527364
C         9.51557364006702   -0.62948990140410   13.05716505853998
H        10.53995871763294   -0.68323560769463   13.39285669927732
C         8.51023732147415   -0.42683053272328   13.98650257233014
C         8.80047256988930   -0.29872437566982   15.45040914106048
H         8.20850565746150    0.50079918241344   15.89778904941844
H         9.85518259875946   -0.09923777256195   15.61632957739782
H         8.54347491263510   -1.22498477872999   15.96511653052015
C         5.44327530596221   -0.44776497599875   11.71727237177909
H         5.38631915576201   -0.27684014927865   10.64600391009901
H         4.90434502819385    0.34624444112005   12.23409287025054
H         4.94714895739262   -1.39302301687664   11.93929956539972
C         6.43700861658514    3.69082004033266   16.40075376627253
H         7.20022037866104    2.92070059066174   16.30325551075495
H         6.30865192752692    3.93635059768825   17.45460855546736
H         6.74170444782368    4.58699055828671   15.85815824770082
C         5.13085626265987    3.17106400802780   13.93137936315979
C         6.37839954336079    2.83396338822890   13.41094769077252
H         7.19589157756185    2.58505206579173   14.07062695772691
C         6.58492588711844    2.82301621613450   12.04319248067364
H         7.55727186969086    2.56487350750540   11.65226213172842
C         5.54889634562598    3.13835978937904   11.17971380544631
H         5.71175475257271    3.13054116366014   10.11333131048540
C         4.30283586907026    3.46755988059002   11.68874008120530
H         3.49342988772523    3.71742300332329   11.01958535956380
C         4.09180921123042    3.47923433275200   13.05550366055351
H         3.12137437955800    3.75341142087943   13.44538692575305
C         3.82980431267364    4.59360015011351   16.05408765777419
C         4.02732646317330    5.77549899826077   15.34619230909187
H         4.75016983255198    5.81001085686867   14.54281318437291
C         3.28704582388345    6.89840751659355   15.66811337811603
H         3.43539991491163    7.81400547574264   15.11626820999660
C         2.35857887528110    6.85206865209625   16.69686743792097
H         1.78511527047629    7.73207620052631   16.94363858771675
C         2.16701487260920    5.67912327050779   17.40885577808470
H         1.44783577734883    5.64629434679349   18.21349453794813
C         2.90054370607813    4.55149121523966   17.08616490703134
H         2.76158474553798    3.62692677401205   17.63349093027453
C         3.67358965224431    0.72053410659298   18.99609382010914
C         4.73832675777587    1.60216446717068   18.70955109024759
H         4.80400357282792    2.62850596462949   19.04899394557133
C         5.80642846860542    0.86923544448938   18.11806381668504
H         6.83272656177401    1.21069392179667   18.03324515618889
C         5.39842691777684   -0.49560455547524   18.05748771534454
H         6.03760330447836   -1.33140119901322   17.80246132813565
C         4.09495661871546   -0.57012736453662   18.56953884867924
H         3.55657192535223   -1.49085502793428   18.74894766110103
C         1.68671093588684    2.84453379929035   20.19813219311001
H         1.05465249061493    3.04633538282119   19.33804698956549
H         2.50349568731874    3.56066774578575   20.19093094783426
H         1.09042815229305    3.05125692732381   21.08135968967730
C         3.17954232106087    0.73247996092644   21.94217422142250
H         2.48681200064682    0.87937703151924   22.76440576737547
H         4.01439696211373    1.41094467724797   22.09102735009241
H         3.56461772898854   -0.28039228377968   22.01443019646059
C         0.84463024872948   -0.16559198525713   20.06848510313803
H         0.23204838344857    0.04564013135687   19.19685866896589
H         0.19662477782055   -0.09294552349929   20.93645661924880
H         1.17382991704692   -1.19894731412503   20.00554879383882
C         2.46424017349015   -0.55168781445960   15.33991400703183
C         1.85940337615511   -0.19054442829036   16.56966146715306
H         1.50266499988285   -0.89476476028519   17.30719732767749
C         1.57765681878265    1.19184403972871   16.56878646055295
H         1.00326110338270    1.72121801440576   17.31544517987869
C         1.99711371595979    1.71478436949272   15.33742812559748
H         1.80110725803034    2.71828645391652   14.98194265962767
C         2.57740591234986    0.65944393746882   14.58827910209464
H         2.83321259186336    0.71851823259373   13.53597012595015
C         2.06906011163089   -2.37103589753647   12.89809974799896
H         2.57721498581886   -1.63135406521367   12.28759450595841
H         1.00276309966801   -2.18264987318027   12.81860037709846
H         2.26002983742116   -3.34584964307077   12.46189034267741
C         4.43759061189814   -2.95013094800113   14.91481795598366
H         4.87552920015114   -2.61117355808561   15.85093039868659
H         5.07885278403168   -2.60667878357542   14.10999641169910
H         4.46713134104561   -4.03522463050425   14.90964741209012
C         1.49220435460314   -3.41800815392664   15.79054451956730
H         1.43696179243950   -4.42167928976062   15.38193719036695
H         0.47952728160639   -3.02710077804350   15.82472053170568
H         1.85052667930124   -3.50832691818906   16.81197515024777

