60
CSD_code = LEMSOM | q = 0 | S = 0 | Stoichiometry = C23H28Cl3IrN4Si | MND = 5
Ir        6.66311584125216   -4.32290108394224    8.18727858237205
Cl        7.13344051428000   -2.26119130696993    9.21990869566985
Si        8.97384832360510   -4.89410995085724    8.36588066009070
C         6.19186836242526   -5.33991438965696    9.89038225187373
N         5.87847452500444   -4.94428927674835   11.16356702982867
Cl        5.99901965866737   -8.77847356710349   11.68342051998018
N         6.24757099016746   -6.70243431326765    9.92978306434140
C         5.77385445642280   -6.03381419034177   11.97561621821761
Cl        5.37415174893861   -5.95684326233774   13.62864831639726
C         6.00500481991839   -7.13991860785466   11.20932191885984
C         7.12229243071157   -2.39342196398333    5.90079334078865
C         6.43257528290702   -7.57557343414933    8.87855813434513
H         6.58619040638991   -8.59901673668630    9.16988099854660
C         5.66635509319056   -3.60604025312274   11.66173049223999
H         4.79225620139603   -3.62210982827043   12.31929814581628
H         5.47215074057429   -2.94945349086571   10.81497250725126
C         6.88842746735804   -3.09064356237214   12.42153449602748
H         7.10497835611447   -3.74554833724456   13.26756943974307
H         7.73965171408146   -3.10181625093219   11.74111372487377
C         9.52561425457468   -5.38127038191340   10.14627380500551
H         8.95055571931416   -6.20765164053532   10.54747969281929
H         9.41926680356355   -4.54234155673846   10.82424705728681
H        10.57140658286104   -5.67125433144437   10.13613915836220
C        10.16652928500579   -3.48536470164606    7.80629072537688
H        11.19635992938291   -3.76225608695396    8.01004185191953
H         9.95143852528608   -2.56614017259637    8.33887480842646
H        10.08042095796008   -3.28429314615352    6.74396085331927
N         6.98448482897167   -3.28645037420975    6.61677546086740
C         7.31857334630951   -1.29147373588799    5.00866194630070
H         7.47959149819094   -0.38635466381394    5.59492944786983
H         6.44145042545109   -1.15781026363228    4.37491882397338
H         8.19158950464851   -1.47332084769902    4.38145739330948
N         6.10741880930811   -5.98265203451525    7.10179182548620
C         5.78438672576757   -5.81650951562000    5.80759683479734
H         5.54193190448237   -4.80773509160316    5.49892018953737
C         5.72863371377233   -6.81981024065507    4.88225036121292
H         5.44758511816462   -6.60871684477723    3.86379150259337
C         6.06514220559035   -8.12575877769350    5.29082001670346
H         6.08704964781465   -8.93118006758297    4.57233556286670
C         6.34408181287545   -8.34132448901441    6.59846947383435
H         6.59108720565442   -9.32342931253413    6.96836516617340
C         6.30644598869202   -7.26715877649348    7.54680292368174
C         6.66438897558006   -1.66401116624529   12.91155627390306
H         5.78380888550542   -1.63076802634491   13.55788327142085
H         6.47741091378438   -1.02713164827007   12.04613349978357
C         7.87608547142865   -1.14233313154431   13.67279684439580
H         7.70459487661857   -0.12433334534275   14.01409881162296
H         8.75252280915089   -1.14641844678961   13.02956345270614
H         8.08244845021753   -1.76539439793648   14.54083685668651
C         9.27227222046557   -6.36511791475032    7.17822063825531
C         9.57810643529076   -7.63377406320040    7.65500190386712
H         9.66541388647399   -7.79233110783450    8.71828750174219
C         9.77231971114494   -8.69581153605260    6.79026970196645
H        10.00902003203526   -9.67513680483430    7.18171796814318
C         9.65949892228824   -8.50773869772902    5.42392857759482
H         9.80470750421607   -9.33684994440684    4.74647129683927
C         9.35717936917989   -7.24998354533225    4.93036132489824
H         9.26600274432602   -7.09603712765152    3.86432765653384
C         9.16560465528043   -6.19460259364026    5.80171826006893
H         8.91994240996448   -5.21815564167634    5.40917274057648

