56
CSD_code = LEMVUW | q = 0 | S = 0 | Stoichiometry = C25H26ClN3Ru | MND = 9
Ru        6.23353485409966    2.58108781961823    2.91953751732212
Cl        3.89187718845298    2.90752531575953    2.73972865611999
N         5.96493794277431    1.19409319111180    0.38296970727673
N         5.72767661990485    0.12114546417892   -0.32674047277258
N         5.50861497846379   -0.82750108193491    0.55649865052845
C         5.91378091755400    0.99647896762896    1.73361629098930
C         5.59724565355246   -0.35990654745659    1.82949310856612
C         5.33253745808319   -1.13873829212428    3.03016214781933
C         5.87870858327599   -2.40273170209677    3.23928513438140
C         5.61389412696668   -3.08623650516659    4.41260805692820
C         4.80360563581974   -2.51905877735135    5.38188090827431
C         4.26020710135591   -1.25964773491408    5.17910060863222
C         4.52276193317048   -0.56738983645012    4.01247618213791
C         5.16370927417905   -2.14435810831673    0.10637642546939
C         6.20412350234153    2.49414407768823   -0.04728506403623
C         6.35090232921351    3.37560792731789    1.03968416716857
C         6.55737302298624    4.70999287163622    0.70496093749039
C         6.63609488425827    5.11695309584408   -0.61784824047912
C         6.49741611201339    4.20920539163466   -1.65882420686136
C         6.27066778283919    2.87573695787581   -1.37849309209075
C         8.89286416363935    0.57909636518109    3.61212357819081
C         7.98964272715952    1.73168931318315    3.95192864095067
C         8.29829502604773    3.04546620102341    3.51800652755518
C         7.51985785164346    4.14714488405513    3.96043721121477
C         6.39570195518991    3.95025918373648    4.76958992343164
C         6.11522099978011    2.62749166474096    5.22968323501447
C         6.92109678680642    1.55053980290233    4.87661628805364
C         5.57221073719344    5.10978815425163    5.28344175024477
C         6.36210010729382    5.86047602067887    6.36113982245082
C         5.14117236736980    6.05224940363196    4.15918891545262
H         6.53237983461545   -2.84163859552950    2.49902121531474
H         6.04429957424931   -4.06436568867615    4.57130490286517
H         4.59719525201486   -3.05802886346937    6.29482207073178
H         3.62710838825102   -0.81711879667916    5.93373955086098
H         4.09868815036858    0.41195534449656    3.83634584278617
H         6.05609739058841   -2.76537534202927    0.00318279727018
H         4.68580880405237   -2.05470654814529   -0.86757844368780
H         4.48154333145118   -2.60694503761943    0.81825623611185
H         6.64624514006881    5.45687767487242    1.48157726740293
H         6.80099191180181    6.16131606299122   -0.84355552037312
H         6.55563072141784    4.54538475137450   -2.68310877391049
H         6.13872379248924    2.14118441429029   -2.15817090022886
H         8.33718730303820   -0.35727838985869    3.60478669789501
H         9.68643921706666    0.49735834167206    4.35783696240584
H         9.35444087112705    0.72332737243324    2.63655023093006
H         9.19536093255553    3.22227573386297    2.93242322742158
H         7.83161692782956    5.14934647141814    3.69238851582228
H         5.29786473559817    2.48033526434700    5.92841154206002
H         6.74913393816729    0.57113933716699    5.30740823040544
H         4.66377646067942    4.70087207775750    5.74071135753719
H         6.64385512361553    5.18956287330344    7.17127330060971
H         5.75855817252476    6.66565392514431    6.77367106557241
H         7.26928273366629    6.29145046157045    5.94131254915766
H         4.65456879437057    5.48411651615678    3.36735531731764
H         5.99230332545543    6.58692384739524    3.74228205723996
H         4.43486654951063    6.78617330388841    4.54030938505561

