75
CSD_code = LEMXIM | q = 0 | S = 0 | Stoichiometry = C31H33Cl4N5ORu | MND = 9
Ru        8.50068384711212    9.35818214480068    1.03618349444139
Cl        8.17268622177648    8.07551270950577   -0.89349874445907
Cl        6.53485601064512    8.39416175584169    1.92388096613664
Cl       10.80653509740806    6.79313571579027   -7.33377278447953
Cl       11.35373538792947    2.96805275456029   -3.63810195127044
O         9.29044008416482   12.72294706101234   -1.24242276475493
N         7.16430410705010   10.66686113458822    0.24037161505441
N         5.79660607122170   11.72560521348760   -1.10043558617612
N         7.90156306596731   12.80480895891474   -3.03151069807378
H         7.68069345742751   12.38655023387015   -3.92097646965897
N         9.74654309608666    9.41058105269863   -4.24428682521916
N         8.91141341313851   10.34424751185676   -3.80241978295351
C         6.73942746171086   10.77525073178302   -1.00043199930287
H         7.08310172646766   10.17656187568332   -1.82462918610120
C         5.61593280132341   12.24708673778969    0.14562206790622
H         4.90729420417319   13.02327574669091    0.34766799920639
C         6.46843849230612   11.57936358053545    0.97248826356926
H         6.60466659536724   11.67691752892310    2.03164141125125
C         5.16903984806586   12.14985642145013   -2.32140264675908
H         4.08147981873009   12.09485234361543   -2.21134046667077
H         5.47249874332593   11.44553102445820   -3.09859187650867
C         5.57133771813413   13.58007202279721   -2.71327278357334
H         5.01517882278833   14.30331368518933   -2.11556148331290
H         5.29728686455965   13.73096877508279   -3.75855774421598
C         7.06529729917012   13.86029301724857   -2.52009088423691
H         7.31143830745371   14.81268963512844   -3.00675318327166
H         7.31194521892096   13.95228102388812   -1.45813217624505
C         8.93656605340466   12.28692725910361   -2.32408525293980
C         9.58614994587860   11.15614620279200   -3.00485052677439
C        10.94557572456865   10.74624435308310   -2.93368632701936
C        12.10408524417365   11.24351634482766   -2.33207538559781
H        12.06359089043655   12.14030485452646   -1.73231694426168
C        13.27896354117980   10.56585399779302   -2.54786205672121
H        14.19440474806774   10.92094924834853   -2.09764014104920
C        13.32395473379737    9.41786641597303   -3.35436105920521
H        14.27202867090706    8.92086820839669   -3.49659562482359
C        12.20363829309936    8.92053170816799   -3.97616109758916
H        12.25360326392328    8.04858249308693   -4.60722536603085
C        11.00412871988154    9.59920456258541   -3.76312578393675
C         9.28659384481709    8.40541973148297   -5.16794997336944
H         9.60137364409440    8.67054255134813   -6.18422624467830
H         8.19385919901818    8.42254805100312   -5.12083098237169
C         9.79630270846162    7.03377388381585   -4.81182340486155
C        10.49584547985100    6.24203751125730   -5.71863548713171
C        10.97448851336516    4.99003963215987   -5.36613437695585
H        11.51447213572296    4.39098096218772   -6.08187290584485
C        10.75154527656868    4.52266063627206   -4.08102046302724
C        10.05219068829912    5.28745601018191   -3.16096129079386
H         9.87029564789379    4.91843300179363   -2.16493992338487
C         9.57798914644883    6.53123138940699   -3.53314262957683
H         9.02664799270975    7.12181131039863   -2.81104781496390
C        10.75595600513267    8.87837194128318    0.85636376145150
C        10.56714216520598   10.26847937877649    0.71290340194791
H        10.98783032812541   10.78633448299049   -0.13768584936429
C         9.86697821329921   10.99901131660930    1.69737257775043
H         9.77352097099917   12.07356182892964    1.57394380347459
C         9.38590991709782   10.38213643972042    2.87734165791433
C         9.55740596025467    8.98267311376943    2.99456108164823
H         9.21319806838195    8.47542969252126    3.88864902178959
C        10.23299518856790    8.23780291934675    2.00783792787965
H        10.41401821402463    7.17886051523138    2.16112787077196
C        11.50203191181535    8.09384735179963   -0.17853471744989
H        12.22026475283895    8.72260502840283   -0.70017569687777
H        10.79375531347124    7.70741970479251   -0.91587142371653
H        12.01671026697687    7.24732184727570    0.27205729485299
C         8.81633814648262   11.21203138353497    4.00297977262529
H         8.47223260157091   12.16369452143475    3.57904757222318
C         7.63709048881708   10.52939783654088    4.69952154161448
H         6.96632409056069   10.07648160683573    3.97038395081743
H         7.07999910342219   11.25458109664219    5.28828667393408
H         7.98267765030125    9.74808693478960    5.37238235613580
C         9.93653367193615   11.52016414101591    5.00454628520713
H        10.33483171127604   10.59792412899545    5.42325610760374
H         9.55215670313354   12.13079242469748    5.81815203498375
H        10.74958066767476   12.05799964727730    4.52035827582906

