61
CSD_code = LEMXUY | q = 0 | S = 0 | Stoichiometry = C16H30B10N2RuS2 | MND = 9
Ru       11.38285212002226   12.92962212193250   11.54641400330366
C        13.63304554440172    7.89035220268166   11.29510499923875
H        14.60458605656691    8.31922902449495   11.53103600763166
H        13.70606071532972    7.32175423708689   10.36640579415444
H        13.34117466607575    7.21384052496619   12.10039874985751
N        12.66973685955856    8.94565605754090   11.16006851963060
C        12.87911751925752   10.25525403518386   11.37964365796177
H        13.81894147555066   10.66998366447747   11.69341076533754
N        11.76821350027504   10.94669778804776   11.20888538564111
C        10.80485769065712   10.04692856728145   10.86441394834571
H         9.78894456580853   10.34857406153420   10.69281446784442
C        11.35520650871144    8.79989480035699   10.83220435144599
H        10.92197540183680    7.84593150566675   10.61445962098334
C        10.56951361821201   13.33093711781690    9.47019871930560
H        10.22824322162661   12.66547967121242    8.68203265849325
C         9.64857481239832   13.84531529297459   10.38900855869064
H         8.60042767026064   13.57303746707964   10.32330141605385
C        10.06011171413897   14.78497000600436   11.37883353761423
C        11.40340110509361   15.18941144151926   11.39954445639752
H        11.72799432170618   15.95300250876024   12.09946441660161
C        12.33308259199771   14.67167873869640   10.45913271347689
H        13.34813775152370   15.05114498801190   10.46776322983714
C        11.93505819281681   13.74002459749167    9.48589038047751
C        12.87559221097130   13.25830325231051    8.40558163562696
H        12.47042214333409   12.32308687035229    7.99793621740041
C        12.92126648689693   14.29456592414197    7.27702260997184
H        13.57325589448320   13.95042039937383    6.47757383347333
H        13.30183972351297   15.24350216319940    7.64962490483371
H        11.92717892177582   14.46052233930792    6.86604956716366
C        14.28017464161469   12.97691499388361    8.94212512372086
H        14.22234257944285   12.41572767479761    9.87399994466297
H        14.81933589340386   13.90170176927075    9.13216702690610
H        14.84909624050565   12.39899876857204    8.21750198424200
C         9.05061391854859   15.35123023733063   12.33117242399554
H         8.19578502383529   15.75106650244164   11.78611441373744
H         9.48543404767543   16.13978887158370   12.94142128573251
H         8.68860996328520   14.56185664506120   12.99488327655161
S         9.93886370031895   12.12741176320887   13.28015251567544
C        10.94283756770847   12.04791252023968   14.77993485510616
B        10.26881326101047   12.53862233770418   16.27884632052179
H         9.14787942693775   12.89198307857131   16.27003776039752
B        11.46582849577499   13.53643584956170   15.47761875702424
H        11.21922899852780   14.49970085033851   14.84925314719010
B        13.04867474170060   13.15013737509528   16.12501051205510
H        13.91119143744042   13.93883454701944   16.00526942192487
B        11.62950459596713   13.23019555278390   17.19836288026194
H        11.48123972423196   14.10087010351261   17.97594782357142
B        12.84390165262448   11.93421585709943   17.40221257887797
H        13.56097008559836   11.90269945254135   18.33511473167676
B        11.09911624752454   11.55111579810038   17.50068799342839
H        10.56537306317584   11.24492214488662   18.50408669886860
B        10.62529159502183   10.83178561610375   15.95000412775231
H         9.73386161443872   10.09927963752964   15.72605626343808
B        12.21388609772824   10.43951593793533   16.65592196154020
H        12.47434242981051    9.36129727468239   17.05062955663427
B        13.40537336615439   11.44377878254751   15.79010238985703
H        14.49283318385401   11.14679710970573   15.45547455727434
B        12.04980388364238   10.73777639916412   14.93488177838157
H        12.14223410653969   10.04641067539234   13.98520081815227
C        12.48667905106642   12.39011601163876   14.69304344652972
S        13.20136636008544   12.87087849216762   13.10144449752797

