68
CSD_code = LEMXOS | q = 0 | S = 0 | Stoichiometry = C19H34B10N2RuS2 | MND = 9
Ru        2.71921734476671    8.03240902269368    1.77756166929295
N         2.20299775660836    9.79828521320047    0.94362948655064
C         1.36902449033212    9.86354497469685   -0.10271876318808
H         1.00456925738723    8.91708699743777   -0.48508364501200
C         0.94205956170793   11.04237813698117   -0.66322434072173
H         0.25757795603095   10.99373293528115   -1.49170246733837
C         1.37820261378972   12.27600952148136   -0.14251378615171
C         2.29208549148487   12.18809983455884    0.92536353941941
H         2.70205475202397   13.06892856887992    1.38720317548214
C         2.66308172742247   10.96218838958076    1.42068826802040
H         3.34045193886081   10.90007265844288    2.26387167706116
N         0.96039687003224   13.46365408387243   -0.64464162336058
C        -0.05574208319502   13.49930474491792   -1.66943944718344
H        -0.97607697761877   13.01151428181470   -1.33513625801532
H         0.29443949313709   13.00380935170385   -2.57862866030813
H        -0.28637745522918   14.53221510100095   -1.91602226016191
C         1.36941195326420   14.69878235194557   -0.01940556517261
H         1.04642883076415   14.74407007306096    1.02500498433397
H         0.92850748131011   15.53785411522363   -0.55097742914800
H         2.45617353166442   14.80833605209795   -0.05618590469637
C         4.45731165785237    6.97617843426446    2.72135726418721
H         4.78828261165799    6.94913232758061    3.75377006927488
C         3.57546621517509    5.97822453054135    2.26503372873330
H         3.24451342602834    5.19765134970182    2.94212923682424
C         3.18078845985735    5.93603821213995    0.90537484846911
C         3.68713836477088    6.91147915613260    0.02341983794097
H         3.45112589350685    6.85744170313924   -1.03381954044933
C         4.57302422237045    7.90843459725994    0.49562625861155
H         5.00745188905143    8.60630539584997   -0.21649361408693
C         5.00882770234969    7.93795360616488    1.83672319278758
C         6.10616101518899    8.88863469100495    2.25642852840649
H         6.07613496774576    9.75504300167862    1.58303933491696
C         5.95073408540207    9.39004827645480    3.69243038146088
H         4.92414114940173    9.69560550279012    3.88720911678762
H         6.60592705003746   10.24151509584272    3.86108399704224
H         6.21717353480696    8.61571912053848    4.40773371362271
C         7.45903393210628    8.18846276490748    2.07557005901658
H         7.59828133052631    7.87676337884480    1.04193295016817
H         7.51592737371399    7.30674050469716    2.71098776676375
H         8.26857257167755    8.86207908252212    2.34646740959901
C         2.28238342272082    4.84049631642672    0.41689942198745
H         2.30998179915523    4.76633838950674   -0.66811791609959
H         1.25298335337540    5.04788502326229    0.71860258755299
H         2.57310818952340    3.88491292712420    0.85050307344373
S         2.26561077526646    9.03156207121497    3.91252842144724
C         0.48925623886074    8.88829630771229    4.20512776657643
B        -0.11372461109661    7.33258333870819    4.64676545350398
H         0.67474967286433    6.46112115208734    4.61093082577816
B        -0.08894411224652    8.65045928780770    5.80211482031609
H         0.71080158773854    8.62713142267326    6.66253331721979
B        -0.37064455760114   10.17750840280601    4.94360637374726
H         0.25274332697820   11.12523242547869    5.25242191432502
B        -1.99964216565089   10.12676474507997    4.22089177912005
H        -2.64409459528465   11.09961179182214    4.06296805129664
B        -1.70087733818798    9.39722248906763    5.82245127341842
H        -2.14273621424698    9.86771990850075    6.80695950737259
B        -1.53948756887828    7.62827623613223    5.62311436545793
H        -1.86795125240401    6.85613883295015    6.44811967875455
B        -2.70572857737016    8.53582735170089    4.61778838836518
H        -3.86748044275844    8.38868568501291    4.73868982733993
B        -1.69024316672494    7.27760517792539    3.88122423342176
H        -2.03178483988168    6.27506357996158    3.37172719612216
B        -1.97195389255789    8.80598139240680    3.02437715687906
H        -2.48714794571543    8.77671785325466    1.96783755772513
B        -0.57477888533884    9.84042059483895    3.23709147873129
H        -0.06104025557972   10.45241533699783    2.37156135286307
C        -0.39893733720276    8.12793340982523    3.14119978933825
S         0.40627740439689    7.43366140887306    1.68253511417886

