102
CSD_code = LENDAK | q = 0 | S = 0 | Stoichiometry = C48H50OP2Pt | MND = 4
C         8.47621195945471    0.95408213988098    6.42046978507710
C         7.31711051590260    0.19532655150505    6.31685562577550
C         7.33191088962228   -1.15675482317499    6.60768213832677
C         8.51065457597274   -1.76621059137206    7.00285904073863
C         9.67704477742794   -1.02244659061539    7.08244247474217
C         9.66573818623659    0.32709220651433    6.78006479977903
C         9.96071127883421    2.68576318138242    4.96139013638397
C        10.05941655387060    1.71588764627264    3.96595319031500
C        11.20317703968187    1.60181372367861    3.20091770178190
C        12.27049115990851    2.45804456162254    3.41746806526433
C        12.17258643057012    3.44184806500342    4.38564035410456
C        11.02425235927932    3.56128437852493    5.14755592972908
C         9.05582136346601    3.69156687365810    7.38722366862227
C         9.76753859219468    3.20345292456297    8.47266094659511
C        10.19829751949032    4.07121352187863    9.46271613979390
C         9.93052958849855    5.42681839920942    9.37484950977633
C         9.22066712384840    5.92048332132854    8.29157656966542
C         8.78650878920362    5.05570142950198    7.30540189739407
C         9.13228484093303    4.95261462094871    2.75622994277639
C         9.48460223949398    6.06889249471171    3.51337204154331
C        10.72728619250474    6.65354123893492    3.36925332206611
C        11.63451700161782    6.12234548264145    2.46590458154994
C        11.29787566548181    5.00045988965266    1.72787064603502
C        10.05369981251949    4.41071784321792    1.87200046008099
C         7.27782548718685    2.77033789536419    2.17162930795639
C         6.81023218057461    1.69734532983556    2.92150831542332
C         6.64583480474732    0.45226209822890    2.34278579484402
C         6.94011181495402    0.27604936982253    1.00047917744177
C         7.36661465788642    1.35153262880054    0.23661538710793
C         7.52554937081796    2.59894981401411    0.81298926717931
C         6.53795655714632    5.39235298656232    1.80212921323939
C         7.03933575775155    6.56928706951093    1.26112593378342
C         6.28029990269852    7.29658419794878    0.35987341806168
C         5.01648539958634    6.86318798171951   -0.00132241235561
C         4.50544883912029    5.69601037345492    0.54539140442129
C         5.25983560151398    4.96743290828067    1.44269105253800
C         5.04183056047762    5.40906433786056    4.87505567968961
C         4.81421192364971    6.37355267827886    6.03513803727063
C         4.17938973678370    5.49728118930429    7.12529670045970
C         3.29936261915540    6.32166957465749    8.05599546408021
C         3.45884310058022    4.34252195642105    6.33373672973310
C         1.97516802774721    4.15575460386363    6.62567098955749
C         3.69860562844410    4.68517133258759    4.85553730227214
C         4.25156209354021    3.07322314894891    6.68280138755016
C         5.65743493506331    3.60503194959069    7.00103551957786
C         5.30374834030887    4.79851689794391    7.89554594758383
C         6.00731931181054    1.91597807201617    8.75149769030559
H         5.47002365592836    1.02665139766566    8.38568345436985
H         5.30547915217561    2.52690244740584    9.33017435177194
C         7.14281402263167    1.47712677325944    9.66475532143093
O         6.52111717270822    2.65328997407378    7.65832707824326
P         8.42263607311463    2.72813710776716    5.97622084873267
P         7.42544803278010    4.36963121979001    3.03215138099746
Pt        6.60048287846560    4.07424083090825    5.21962149447221
H         6.42410590726404   -1.73782739800024    6.52704527613185
H         6.39792415746454    0.67835656236901    6.01891635478639
H         8.52470458186269   -2.82043908861123    7.23848217064088
H        10.74534777952714    3.68439712352564   10.31114759405995
H        10.26880733108179    6.09654251740128   10.15231308102806
H         9.00319039329558    6.97717109561107    8.22364136545886
H         6.56479802232958    1.86703935900198    3.96881125764507
H         7.56852221895228    1.21722968395864   -0.81652240398169
H         7.82017199905349    3.44390731233225    0.20560285481554
H         8.76115751901040    6.47285956363361    4.21284062488013
H         9.81209396217804    3.52431866624441    1.30539074459031
H        13.17315679079826    2.36002135397682    2.83236128783964
H         5.72206374542984    6.86860965259367    6.38559878090384
H         4.23458404121703    2.34359724402490    5.86770503607205
H         1.80357198171705    3.91979317476700    7.67356965433069
H         5.19174922090920    5.97528055901660    3.94335786756571
H         6.82069544454512   -0.69532544122910    0.54302458766741
H         6.28885450436320   -0.37868880067734    2.93436430391655
H         2.50510076165889    6.82133097177242    7.50627611825553
H         2.84979525061816    5.70316792350038    8.82959582658582
H         1.40953591761257    5.04988216706358    6.37486031703379
H         2.91560574984798    5.36426206046079    4.49855038213399
H         3.68145411351095    3.79565416330985    4.22142696673009
H         6.15105896758798    5.45569373389363    8.09345573666486
H         4.10917067485291    7.15430022629439    5.72674012157139
H        10.99079339842195    7.52137035177916    3.95679471161285
H        11.26608000163673    0.83733379625748    2.43937688981856
H         9.23491619891750    1.03407036526499    3.80407318332651
H         4.86396245848770    4.06137508534506    1.88171997516061
H         3.51630791894614    5.35802602820681    0.27269997692284
H         9.97335442508381    2.14792294499407    8.56297396201406
H        10.58832322847577    0.89036255979016    6.80642603145452
H        10.60215367561133   -1.49893296606946    7.37451471133661
H        12.00955060009902    4.57935600944129    1.03234684606095
H        12.60619563097463    6.57832902403435    2.34315031378647
H         3.90641378906899    7.08394220169194    8.54210466820892
H         1.59040872185970    3.33254013150456    6.02531668636378
H         4.42820679214514    7.43518249971738   -0.70374854670000
H         6.67992146992442    8.20807048897144   -0.06105788153551
H         3.81257446010494    2.59745274399124    7.56584219999235
H        12.99798907315428    4.11851293568226    4.55443695299498
H        10.96342077260409    4.33335164958231    5.90123889969923
H         4.92713215687155    4.44916402755218    8.86319134339581
H         7.83161776718920    0.83239400112588    9.12614089096736
H         6.73801362000854    0.92969703004290   10.51285615101415
H         7.68535401820478    2.34677474338148   10.02599269367832
H         8.20557500639205    5.42071172242314    6.45444737427263
H         8.02367168413942    6.91884160266307    1.53840585290531

