56
CSD_code = LENFOB | q = 0 | S = 0 | Stoichiometry = C22H30N2OZn | MND = 4
Zn        7.05879223737724    0.30082323775291    4.91705188892709
O         8.87058486868299    0.66660205209207    4.36935236745053
C        11.19017817411428    2.18765247271033    4.66451282139891
H        10.69259710656032    1.79822125085698    5.54084615147361
C        12.30975358156778    2.95584313576799    4.79324027953332
H        12.70582845248507    3.19114110393401    5.77128001309206
C        12.96154102776037    3.44220356491234    3.64468267823129
H        13.85129842467300    4.04630387104645    3.75654624639926
C        12.47562284624331    3.14949979670964    2.40682938654265
H        12.97424521468130    3.51654091157463    1.51995497788078
C        11.31113548211392    2.35768933923773    2.23632224663701
C        10.80323608231006    2.06791694864258    0.97393476817540
H        11.30149070233911    2.45389492751152    0.09578070256809
C         9.66250891173441    1.28568183692254    0.82867737585127
C         9.13258783951969    0.98496205231340   -0.45291635018571
H         9.64711407620531    1.37862555418934   -1.31900622343855
C         8.01309149652647    0.22478370696236   -0.60087734955747
H         7.62292989969892    0.00559568775374   -1.58508041334131
C         7.35595165267194   -0.29005009352826    0.53266370312547
H         6.47522833445036   -0.90380997881373    0.40633500879615
C         7.84094298064025   -0.02281022971768    1.77952548427443
H         7.34431202186113   -0.44089870558194    2.64953408019371
C         8.99036920511031    0.77047200623571    1.97923776685792
C         9.47234873764539    1.06826097487184    3.28768954327060
C        10.65260458339899    1.86299457371317    3.40040837941952
C         5.89019970733546   -1.34667975604004    5.07780980717017
C         6.67444590598641   -2.65978947570365    5.14523302215385
H         5.99087820972809   -3.50723995295217    5.23541537387174
H         7.34504135053067   -2.67685885959329    6.00215908017207
H         7.27286328186464   -2.80634737694207    4.24878711071379
N         7.30790985342476    1.21416017447418    6.99555962034208
C         6.27473090614033    0.98241562789897    7.99711696522164
H         6.47228001889168    1.55089412384141    8.91604572242942
H         6.24600464594040   -0.07726052062339    8.24195667460975
H         5.29659083878421    1.26362108816951    7.61510621049378
C         8.58537410710756    0.74434806347342    7.52277188289440
H         8.90423581936228    1.33225470646814    8.39330553054786
H         9.33806011450614    0.80645794591863    6.74240026136846
H         8.49140752468473   -0.29908666099775    7.81748433784225
C         7.40182756022974    2.63035785450584    6.64682989348355
H         8.32819307233912    2.76948555868868    6.08838308325115
H         7.44304929885589    3.25490658071028    7.55349243244917
C         6.23143518701340    3.08868809422707    5.77882546924384
H         5.29250544462845    2.85451263341380    6.28371306989508
H         6.28231258257106    4.18067388886060    5.66064026550718
N         6.23391360111907    2.42708606468542    4.47153194952797
C         7.07716378012258    3.16754837874651    3.53755064515941
H         6.68139417640349    4.17722148769226    3.36431764418920
H         7.12479474023956    2.63859636486566    2.58797430041225
H         8.08888425237591    3.24886753212765    3.92492755601622
C         4.88164147421676    2.35688260785758    3.92611466300434
H         4.44254404391268    3.35597960715528    3.80628487020816
H         4.24528447971358    1.76526953489283    4.58214777047994
H         4.91468139916251    1.87313899792756    2.95159580139328
H         5.26726002504829   -1.27992311741031    5.97011791576262
H         5.19479865752877   -1.41632119438755    4.24007553679482

