47
CSD_code = LENGUH | q = 0 | S = 0 | Stoichiometry = C24H16ClN2O3Re | MND = 6
Re        7.81196975858469    1.04130285452763    3.49191478754615
Cl        6.90180608275701    2.26575653032625    1.67182901350682
N         8.40765808555514    3.01164014575532    4.10165801701151
N         9.63164221178521    1.40280588063086    2.35009143076267
O         7.07105878858813   -1.58475767592003    2.03803431183954
O         5.05078962803501    1.12276568873704    4.87625367585296
O         9.34408283886245   -0.26934346171295    5.83322403945206
C         9.12994565098957    4.85072230821916    6.73262476361876
H         8.84139086514299    3.81313936037018    6.63634656726755
C         9.84468515512923    5.26370179207637    7.81537256066721
H        10.14116272400390    4.55341280124469    8.57266899013380
C        10.19816112370427    6.62067936553829    7.96734941637678
H        10.76672742073770    6.92283999596471    8.83408806454528
C         9.81344315761918    7.53766469362144    7.03857178852926
H        10.06450627728934    8.58211904379920    7.15454494421055
C         7.48588638938620    8.63510962293856    2.85221099188207
H         7.73262891024864    9.67634122182139    3.00291931804029
C         6.78745282933496    8.23364169935517    1.75510094598082
H         6.46439727565476    8.95449045267387    1.01854201812738
C         6.48433222817765    6.86957341643177    1.56177959347930
H         5.94092529085127    6.56925766218904    0.67870631362104
C         6.87481284227665    5.93479949520903    2.47203635600733
H         6.65610806877863    4.88992564907504    2.30457828586521
C         8.00382066384196    5.37962918838678    4.59484160104326
C         8.64807010839747    8.07821079356833    4.94510502071366
H         8.90047585242292    9.12085744553622    5.07940451507069
C         7.63079323455602    3.96917406627701    4.40455534214455
H         6.57728248937176    3.72920400540999    4.52823117818614
C         9.80944707818435    3.28380589084825    3.85813024093276
H        10.38627536181598    2.89725146222346    4.71204855546682
H        10.01041222007863    4.35792909136882    3.76409694216671
C         9.99643509933632    0.72170005542728    1.26660039500467
H         9.47008259389739   -0.20500172399301    1.08013206087878
C        10.98762816848493    1.15512828672281    0.40570734637830
H        11.24058552886783    0.56836186505418   -0.46239290800122
C        11.63129865454618    2.35221671909675    0.67689919799571
H        12.40279331091468    2.72897293945940    0.02311364441181
C        11.25531793825125    3.06146297060167    1.80418329322930
H        11.72255112114840    4.00175693779984    2.05372042291293
C        10.25255126499938    2.55358017821391    2.61678564640035
C         9.06615124148137    7.15182628087597    5.89617635324747
C         7.91308949111743    7.69667537103933    3.82612947391059
C         7.58525733949746    6.31806254689439    3.63922406688966
C         8.73239642414152    5.77170989975849    5.72812391915275
C         7.35024489552161   -0.64225737722652    2.62585212027606
C         6.08869306852351    1.04197756050353    4.39897311694204
C         8.75667324713883    0.19787700335305    4.96181226028720

