51
CSD_code = LENGAN | q = 0 | S = 0 | Stoichiometry = C20H24ClNO4W | MND = 6
W         5.57626658021467   12.32238775316446   11.98894484014656
Cl        4.75811863160328   10.23729771841180   11.28554214207937
O         7.20215914868139   11.93760945202890   11.80219030197696
O         5.21738026522567   11.83783237256884   13.75696533107074
O         5.04236170310075   12.85912803279484   10.30582295005026
O         5.65502344963956   14.14319705055943   12.53182997734567
N         3.20473136641394   12.95833543598298   12.24205714535247
C         4.29240626006209   10.91807333067819   14.08093231556678
C         4.67662415328580    9.61274785617246   14.42416482006425
C         3.68639926747520    8.70045767806321   14.74070508818724
H         3.96794338555718    7.68993792818234   14.99886494177496
C         2.33658202884435    9.04178362661213   14.71956245355114
C         1.97278342061187   10.32676725991952   14.34469026929019
H         0.92771265632207   10.60043665132233   14.30054809913158
C         2.93821609992480   11.26799643804672   14.02006398950014
C         2.63997865825865   12.67917001656752   13.58733039592856
H         3.11263393039536   13.36295485165917   14.30246639460109
H         1.55602383060801   12.86857462827023   13.58933263439264
C         2.30940023026268   12.34214866049790   11.24308792527111
H         1.31506580281155   12.81750993999582   11.30646607532995
H         2.19473087955533   11.28613533910991   11.52715184895445
C         2.76108616241293   12.37430784360156    9.79748163381985
C         1.81068045259293   12.11406286719320    8.81591569344724
H         0.78151609708663   11.97088983875769    9.11443252228497
C         2.14891500590958   12.01352335883306    7.47635140716934
C         3.48403284157016   12.15741227635709    7.11377929258397
H         3.76819205761478   12.05049870586859    6.07686214003928
C         4.45873831875411   12.42643974447991    8.05446235070330
C         4.09393648346611   12.55782126564762    9.40654077234930
C         3.30545325969485   14.41334242424541   12.02940477996497
H         2.40002457571146   14.93123318310088   12.38238982768171
H         3.41226757423485   14.59659572738253   10.95448589390159
C         4.56029723149581   14.96306619156657   12.75007025254475
H         4.76874278618240   15.98003743718550   12.37402488197443
H         4.37664712210980   15.04250203329014   13.83911989361486
C         6.13755291018308    9.28260278542228   14.36919726697534
H         6.61181910899497    9.86870588285099   13.56482706922488
H         6.28768675064264    8.22262714266638   14.18428021111566
H         6.62684702728357    9.55022342577185   15.30601359177334
C         1.29763543256016    8.01479208596115   15.05703137988522
H         1.21497802923999    7.28909399119072   14.24873778078256
H         0.32510670426550    8.47675132965584   15.20381069880371
H         1.57036328256758    7.47596059752267   15.96174446844182
C         1.10033552766981   11.75685538989423    6.43628161358362
H         0.23474154150788   11.26405794578965    6.87126015503970
H         1.49605713980425   11.13434153250356    5.63777197679956
H         0.77013902813689   12.69810374891428    5.99571185175450
C         5.91308717331427   12.55715144318792    7.71815073292191
H         6.15422447631557   12.00554867943918    6.81349436411749
H         6.51165034893902   12.17889408494035    8.55459061912173
H         6.17780380088410   13.60457501616863    7.56945493801448

