55
CSD_code = LENKEW | q = 0 | S = 0 | Stoichiometry = C24H19BrN3O6ReS | MND = 6
Re        8.56829856427337   13.64370566819907   12.72331136431624
Br        7.36470842877920   15.79493235932022   11.96621455385371
S        13.04642702228993   17.98580498002012   21.15206414240636
N        10.04283393276943   15.00321999590413   13.43857267509293
N         9.82539343373014   14.01410952298118   11.00740795462420
N        11.49338570906263   17.83543571978027   20.41430736891428
H        10.78730746230931   18.47685567737587   20.73660201385348
C         9.54696924496468   12.05312108599049   13.24953002728371
O        10.13976545691619   11.12260353548251   13.56376935171029
C         7.49505020257415   13.67890476451857   14.35661048631110
O         6.87301373184492   13.81333016018982   15.30646300583348
C         7.19929772660713   12.61918109337632   11.77632597605399
O         6.38968529714700   12.10351200362532   11.15403652015356
C         9.91671590506551   17.17416061688952   18.68890800863769
H         9.61934452582659   18.22342697182387   18.68332856594957
H         9.21698927023456   16.61567004879396   19.31677476567187
C        11.29757200281954   17.03996306117469   19.33144938102916
O        12.14779862922413   16.27299265653527   18.95350559695809
O        13.95499668244185   18.50662220257481   20.18401061825273
O        12.76142696513015   18.76522176836291   22.31868298926137
C         9.68891269683645   13.51298326831127    9.78392783030345
H         8.94268716047604   12.73863108340898    9.66034629898475
C        10.44063368147885   13.94250003402369    8.70552263708135
H        10.28047256289163   13.50521467388964    7.73359592160143
C        11.38900328629034   14.94101167099228    8.89614315956555
H        11.98606241942628   15.29983265836054    8.07230752757730
C        11.54518790856856   15.46622712365701   10.16189049598174
H        12.26201432772026   16.24649655734543   10.36471040401487
C        10.74526043321121   14.98506848756060   11.20021552307683
C        10.82240027224431   15.50255533237424   12.54130175660620
H        11.52609573927976   16.29950963050717   12.76573324037727
C        10.03707210666082   15.55297903721401   14.72567431660646
C         9.99638003641666   16.93299805412554   14.91402091186067
H         9.95198166346620   17.59168362494442   14.05854303480037
C         9.93742302941791   17.45073594637138   16.19284822848915
H         9.88765713079608   18.52129658295596   16.32656062294338
C         9.93266738021799   16.61238619290727   17.29909531402293
C         9.98606994231018   15.23565295729818   17.10478394090349
H         9.99533055360355   14.57652244947049   17.95872149783135
C        10.02467897042409   14.70497113980923   15.83356942467904
H        10.06287217310071   13.63479152695113   15.68196860505116
C        13.43560169718114   16.31179898701616   21.58955085331791
C        14.33512353805849   15.59604518504379   20.82662933875703
H        14.79171750481910   16.07348313252362   19.97583486342189
C        14.60928074249998   14.28622950823775   21.17427862956926
H        15.30909143461643   13.71070259382551   20.58702169538624
C        13.98973327086076   13.69605377700558   22.27334242406324
C        13.08999914261160   14.44519115941286   23.02593833373048
H        12.60769162174887   13.99771323889408   23.88243753628419
C        12.80897587397431   15.75706899682457   22.68655578606946
H        12.12588821094754   16.36011110946093   23.26348423440660
C        14.27544198025571   12.26919016524360   22.62337455934552
H        13.68118850243983   11.60939544077887   21.99103659330244
H        14.02414810354789   12.06226054553036   23.66017860811404
H        15.32377470757796   12.03303423481265   22.45748048570647

