111
CSD_code = LENKOG | q = 0 | S = 0 | Stoichiometry = C84H21NO3PRe | MND = 7
C         5.42200608700322    4.77005998026359    8.37769466655688
C         3.94415084431103    3.34486274556890   10.15363776546048
C         7.77047195615298    3.58436213330480    9.34615766842223
C         5.22150369786106    2.08059962496995   13.06980382368968
C         4.66237616579819    3.33396291703255   13.31053645602468
H         4.90437181660470    4.16120895219598   12.65546994287385
C         3.80033108509334    3.52449721845271   14.37440937698509
H         3.37390029902592    4.50124344144230   14.54749325551422
C         3.48095741472717    2.46599695611731   15.20859161245975
H         2.80111520145423    2.61140851313482   16.03468445988694
C         4.03735687787594    1.21939125388109   14.97831558200020
H         3.79527849160797    0.38997911322945   15.62669572128397
C         4.90518802447210    1.02377413321315   13.91858218059234
H         5.33049642501875    0.04390137475870   13.75926245216808
C         7.97505095044778    2.36062922846023   12.33678110844575
C         8.10195265080131    3.14369339494652   13.47605673727659
H         7.22318594181758    3.43424050237679   14.03366903273326
C         9.35753363784390    3.55165034883571   13.89335004065070
H         9.45324413749109    4.16029444725957   14.78033462928665
C        10.48474900757646    3.18883560506526   13.17679771613052
H        11.46105745142578    3.51417553602059   13.50355963183440
C        10.36152068667895    2.41167733757527   12.03513802834041
H        11.23896970651298    2.13081491166462   11.47156925173246
C         9.11233206258170    2.00329437560412   11.61281870531911
H         9.00924028476687    1.39493271477611   10.72126400520323
C         6.48447016623216    0.05446888723970   11.62618943358013
C         7.50190001919640   -0.60639023172014   12.31188093268247
H         8.28714757949379   -0.04186439588762   12.79250396722281
C         7.50756802332906   -1.98624945707567   12.40094028763738
H         8.30426986270244   -2.48114753013531   12.93625962643429
C         6.48867205454718   -2.72809787319047   11.82563071916912
H         6.48534541717073   -3.80426325121301   11.91065437187332
C         5.47698144018752   -2.08476055850679   11.13820565761110
H         4.67294647770865   -2.64067108906144   10.68052103077954
C         5.47044180662314   -0.70043341202444   11.03212792228844
C         4.44405639295478   -0.01477405021849   10.19172462581200
H         4.35101214051214    1.03811612998896   10.53635847939402
C         2.42363373080197   -0.50083882021874   11.41528010170750
H         2.98194097506216   -1.01401397727808   12.19690762985072
H         1.44732709746736   -0.97036963509408   11.31064778993202
H         2.28413862569027    0.54971628297685   11.71595627701434
C         2.47925847521179    0.02401931121423    9.05070152687641
H         2.21196814272857    1.06948041682706    9.28028675630298
H         1.57108742514666   -0.51572190996979    8.77762375469215
C         3.53215895630057   -0.01645474155051    7.92188287096017
C         4.90012324667110   -0.02064344746278    8.70126816563012
C         5.87483913628978    1.10880266176864    8.36771140588005
C         5.52083262195576    2.20003529412188    7.53617764807141
C         4.26039541659210    2.14426563794046    6.77448701371710
C         3.39838406860410    1.08498644310198    6.89290111301905
C         2.74496615121645    0.58519698892669    5.72413386501327
C         2.67646375916844   -0.84778427706280    5.82511402442478
C         3.29887415141468   -1.23303524872276    7.04786098151048
C         4.04226688128391   -2.38072894607283    7.09175771078923
C         5.31777992153290   -2.38077449548010    7.79893365744344
C         5.75794328057487   -1.23956701399222    8.41546813422558
C         7.12913198643871   -0.87371068230751    8.30772626232040
C         7.20230183184044    0.55752634440847    8.22153823088832
C         8.16756592251924    1.13815775008175    7.40639579186805
C         7.81402579511606    2.26301609000350    6.58190380282685
C         6.51452370266724    2.74170201099322    6.61404008060647
C         5.86803247940874    3.12247654278104    5.39203240628755
C         4.48342398794414    2.74986378411462    5.48975061904868
C         3.81727120204979    2.29173310559342    4.35879244347205
C         2.92422877277026    1.17937536029179    4.47934653792397
C         3.05569593279132    0.36458888581534    3.29694973490551
C         2.98887072354101   -1.01727419054244    3.39621656100735
C         2.78681754860637   -1.63581786562441    4.68294616186341
C         3.56574518915372   -2.83791129838733    4.72974713196466
C         4.19178519178024   -3.19619296768709    5.91921423472107
C         5.53751827500587   -3.70756528382061    5.89325479781144
C         6.22726436575850   -3.20336012731110    7.05289218983655
C         7.57194602393532   -2.86275793272832    6.96392036795263
C         8.03403661862717   -1.66990786535743    7.60849042776130
C         9.03184059157200   -1.06280964301838    6.76681657409585
C         9.09040361401846    0.32002295561164    6.66559957763815
C         9.30355142470778    0.94012632239738    5.38171283624452
C         8.51317693875066    2.14393010563297    5.33272687776775
C         7.88837924924632    2.51884528651736    4.14950081799142
C         6.54108044909123    3.02435400489465    4.18104523694201
C         5.85111109107239    2.53280275365920    3.01481040699171
C         4.51278608646875    2.17477006196747    3.10283211302611
C         4.04277837732052    0.97987411354311    2.44596617824749
C         4.92955076569618    0.18770675780938    1.72856312208437
C         4.86079043643089   -1.24897219360396    1.83396964127506
C         3.90634684214520   -1.84065392285427    2.65070815405536
C         4.26380800356049   -2.96820113459742    3.47731021066572
C         5.56238760430439   -3.45954182054120    3.45605736699581
C         6.20964805271287   -3.84186554498890    4.68708080335392
C         7.60140418790374   -3.47379747968365    4.59326255054918
C         8.27127256182969   -2.99692901106864    5.71221783357789
C         9.17557146156038   -1.87969576137872    5.58905076478027
C         9.37422766890619   -1.28242818567666    4.35090496875860
C         9.44136801587104    0.15465235023210    4.24592726768320
C         8.79173685124955    0.54333233204937    3.01904912710318
C         8.03101826729185    1.70429428406094    2.97195346329853
C         6.77022968457166    1.71311663302509    2.26909573625256
C         6.31884487354441    0.56091184442657    1.63953350821800
C         7.10841327955646   -0.64401131547536    1.69081524010246
C         6.20725383802117   -1.76197444265419    1.81148361880549
C         6.55087090019358   -2.84726467717396    2.60737002457836
C         7.81064794552349   -2.85653501987270    3.31006679064259
C         8.68012810891855   -1.77971040344760    3.19114516193340
C         8.32092977073709   -0.65241251955302    2.36747982717461
N         3.13772173159039   -0.62465897926385   10.16614164172606
O         5.15161693515173    5.52336732415223    7.55574590987142
O         2.82198573682379    3.34090576984383   10.40113066215350
O         8.87669814491107    3.75559791074862    9.12018455039740
P         6.35673988133052    1.88640627770423   11.64529671263318
Re        5.85054878778341    3.44320240732595    9.74249164918607
H         6.06101194040576    4.67191044664007   10.82182395770456

