60
CSD_code = LENKAS | q = 0 | S = 0 | Stoichiometry = C27H24ClMoN5O2 | MND = 8
Mo        7.68623152106828    2.61562734966434    2.03815787234890
Cl        6.91191481655608    4.77440785384322    1.12242076679663
N         7.21013655634925    1.99701502804507    0.10105703736890
N         5.68855246872597    2.15731636028488    2.14022490793115
N         2.69267080170364   -0.91549588561899    4.87209760990842
N         1.91885556072216   -1.71979307669912    5.49026311457076
N         1.28626948435358   -1.05815171895693    6.45138886218050
C         7.91129117419933    3.52427132178843    3.74541639511898
O         8.08910535640144    4.05698947499126    4.74497649600439
C         9.47266530980705    3.30403621222153    1.69114295644838
O        10.52533159921119    3.71270513120855    1.49226640494144
C         2.58879032285243    0.32336089601108    5.41646938262829
C         1.66672923901374    0.23607175670907    6.44723384108271
H         1.27196185666213    0.95313866931995    7.13458430014776
C         7.84652761726039    1.11562855188754    3.82937359370104
H         8.73748395185118    1.28798786143918    4.42812248807377
H         6.97523699563226    0.86306506057900    4.42780426199185
C         8.01565517143126    0.43595622030851    2.60145015152582
C         9.16567239194621    0.81632119233887    1.87888505782991
H         9.34371976728932    0.32019486540371    0.92835077762750
H        10.07657854011866    0.99693603745228    2.44290815561969
C         7.08906951162790   -0.64839816283311    2.12822271863597
H         7.54990456420346   -1.61430031662912    2.34938617465003
H         6.91688218742170   -0.60444884235106    1.05132463721736
H         6.13289399859388   -0.61159375576523    2.64715372458189
C         8.00988195936928    2.05928222946910   -0.96450257986377
H         9.03731670921844    2.33891124685114   -0.77045334270323
C         7.58969862452534    1.78913374804539   -2.24795191197378
H         8.28509188244055    1.85528212255231   -3.06900757563557
C         6.25627664405599    1.42996418750748   -2.46862390985956
H         5.90459220754584    1.20842922227535   -3.46440712709552
C         5.40848970066970    1.38271842713564   -1.39048856474982
H         4.36381930129928    1.13551940462430   -1.50067210652120
C         5.90822414343548    1.68437155361690   -0.11288050774165
C         5.10315174725794    1.75779588673860    1.05162076425425
H         4.03385500775857    1.56193711950782    1.00720829100920
C         4.89689928503704    2.32495058494405    3.27969920738074
C         4.11445754651665    1.28494152923057    3.76502662564676
H         4.09560413705906    0.32349394933602    3.27255092868157
C         3.36098736532691    1.44936527632740    4.92385156358094
C         3.36913788640900    2.68002980654983    5.57511755489157
H         2.78857556321162    2.81946501255582    6.47413781933501
C         4.12193757232858    3.72507717397644    5.06789354354156
H         4.11341157028231    4.68290073943621    5.56554992580104
C         4.89064173630140    3.55685078254971    3.93183262283475
H         5.46210319835565    4.37660355852443    3.51961098991170
C         0.29044992125182   -1.69435729846872    7.27229128729340
H         0.35371854207465   -1.29592253032089    8.28814103201634
H         0.52687167202967   -2.76245975529853    7.28444812888923
C        -1.08811053754440   -1.47468942021237    6.69432962740610
C        -1.35323501399897   -1.89371592651252    5.39610461665416
H        -0.57174475493589   -2.37626935095785    4.82654323642003
C        -2.60215946334400   -1.68738033082874    4.84001771080011
H        -2.80117625820701   -2.01460300422558    3.83049505405145
C        -3.59591243447330   -1.06436511577818    5.57736110470501
H        -4.57182862763812   -0.90501342076864    5.14381097991499
C        -3.33559407067044   -0.64524703358231    6.87033468511648
H        -4.10700021834178   -0.15793948000144    7.44782630238002
C        -2.08325400636528   -0.84534191401653    7.42659184420441
H        -1.88320930324684   -0.51516706542425    8.43631049048523

