100
CSD_code = LENKOE | q = 0 | S = 0 | Stoichiometry = C44H48N4O3Ru | MND = 6
Ru        0.11793628698519    0.35673656626360    3.46185273652023
O         1.21377934648322    2.24054560568057    5.32928389375709
O         1.01392664230475    1.97415042517154    1.11774480696510
O        -0.68030672650192   -1.89189439360680    1.60690908642233
N         2.10923813296378   -0.13541860364168    3.82679489357056
N        -0.00804494575111   -0.42171892870816    5.39463623124554
N        -0.81802096134501    2.90287575259558    4.59464472535678
N        -2.98579518556421    4.08932008228899    2.23817106817846
C         2.30918568747167   -0.46471652427436    5.06882109051463
C         1.18730606461203   -0.58327164671862    5.90756227141383
C         0.24296502950381    2.07226847789428    4.59688582904073
C        -1.95436884090287    2.58254658157555    3.74332836752128
C        -1.93070900508519    1.05012254452362    3.50031809369704
C        -1.95207623156362    3.42403326549311    2.50209185583342
C         0.58303747922975    1.35685463981752    1.98788728856499
C        -0.36061118257244   -1.09381058054569    2.36692332649462
C         3.17755315131001   -0.22609680000230    2.91069744174023
C         3.91326034021612    0.90085805971913    2.53591364103827
C         4.92185963615760    0.75632667068528    1.59199142447698
C         5.20865080678977   -0.47385922050730    1.03494299802740
C         4.49534888422583   -1.58950557557888    1.43481513361550
C         3.48612041519734   -1.48754574194627    2.37849326162572
C        -1.09517290577429   -0.60259363455220    6.27825257688736
C        -1.19355968586248    0.12092080200378    7.48025847642091
C        -2.31075068007408   -0.07628251753186    8.28460832744413
C        -3.29565909525887   -0.98250453285861    7.94855137769283
C        -3.16629548425415   -1.72533816013378    6.79010101037555
C        -2.07895355192789   -1.55136067653525    5.94893379260139
C        -0.82911097628217    4.13141456138413    5.32034086420553
C         0.10730815850000    5.12233176234527    5.00846541836173
C         0.06662685132215    6.32404101195982    5.70350583655899
C        -0.87494126302460    6.54401542546412    6.68934221532238
C        -1.77894351485343    5.54828289112580    7.00535597262415
C        -1.76809083021593    4.33174413785466    6.33667760535197
C        -2.90506299399984    0.65550438387580    2.42634544233528
C        -4.11745009593965    0.16101341667076    2.68188184483200
C        -3.17685242823904    4.92024809751421    1.14751131667685
C        -2.35813800788503    6.02731192671273    0.88304172388133
C        -2.68554912684497    6.86083426046309   -0.17649192567729
C        -3.78946520553131    6.61381771340705   -0.97066489036860
C        -4.60458127275345    5.53193400593321   -0.69020717662110
C        -4.32292212428206    4.68804567385765    0.37059673526137
C         3.65432337844894    2.25057954526573    3.13323107699714
C         2.74339163412945   -2.71095546488281    2.82891187632927
C        -0.16658076064601    1.10751757425401    7.95727523671048
C        -1.96214157418572   -2.39941693283854    4.72014995313881
C         1.16937821989315    4.91147672958162    3.97514286387995
C        -2.75553928209138    3.27641823902874    6.74032138417397
C        -2.51244776146672    0.85839660806343    0.98409723400553
C        -4.79762689161900   -0.05821729054434    3.99520433339017
C        -1.16570400618554    6.34944409466227    1.73558944797306
C        -5.20873186947724    3.51583702217217    0.66821556514696
H         3.30325184228321   -0.70456846239445    5.44089116508001
H         1.31474807612730   -0.89109057251619    6.94135611769405
H        -2.88120909369955    2.84729990968905    4.26505418481868
H        -2.31831930830816    0.63633185745622    4.44307898830505
H        -1.05281831592125    3.40328981961866    1.87697161165404
H         5.48850288173484    1.62846543931745    1.30014796718049
H         5.99270451851963   -0.56775369230956    0.29892036055287
H         4.72715468793663   -2.55752678266257    1.01528236990924
H        -2.39469288490807    0.49316254200444    9.19875163435673
H        -4.15144243449494   -1.11974980920547    8.59174710994753
H        -3.91663241560058   -2.45774230921961    6.53199603803593
H         0.78499638751900    7.09375487382247    5.46176647956483
H        -0.89795854146618    7.48543639055149    7.21762901094565
H        -2.50510199960502    5.70843509482329    7.78930478265017
H        -4.74044698331269   -0.11253448476615    1.83757630568912
H        -2.05760767256560    7.71665996534086   -0.38070030921873
H        -4.02061200477668    7.26916083533205   -1.79724547846859
H        -5.47896608098682    5.34170035456493   -1.29610357186129
H         3.00951234417017    2.18792077070580    4.00560688162669
H         1.67154898722523   -2.51592690361850    2.89333998090938
H         0.43799777760557    1.52226882299530    7.15576158721996
H        -0.93268200891938   -2.71738937281126    4.55526287337513
H         1.49333140892924    5.86311538325391    3.56006564940441
H        -2.39536427701771    2.27903266874041    6.50280762754730
H        -1.46043159463033    0.63110121363883    0.81535811227338
H        -5.08015568469731   -1.10656202620565    4.09941716255667
H        -1.30456651690419    5.99897474690949    2.75665472442972
H        -6.24825321997403    3.76462562954872    0.46548406890529
H         3.18283731088758    2.89968158850231    2.39517892725953
H         4.59488185957808    2.71432579141858    3.42738272422003
H         3.08479506127332   -3.02459716403355    3.81673665307410
H         2.90813953124650   -3.53183168809393    2.13575243065546
H         0.50527581968036    0.62949432379072    8.67206918263582
H        -0.65589604594488    1.93133050774510    8.47308697020023
H        -2.29946586906695   -1.84076649695914    3.84553537491749
H        -2.58568156606178   -3.28529944215300    4.81536671666053
H         0.82512366231639    4.26714021064231    3.16838272913503
H         2.02884967600164    4.42736389532315    4.43942674980511
H        -3.71004889039916    3.43223627767487    6.23566493407593
H        -2.94092017463794    3.33325394929460    7.81146754420350
H        -2.67979665271133    1.89238886766206    0.68793714434693
H        -3.11098754941835    0.22361783088836    0.33418596125460
H        -5.71591781979714    0.52991542981761    4.02554736002792
H        -4.18714136970288    0.21998607211129    4.84911406771915
H        -0.99953716886221    7.42468850729895    1.75570115738160
H        -0.26842221972641    5.88129999327748    1.32980021910178
H        -5.09788851577467    3.21737051153878    1.70798665684057
H        -4.93857863094015    2.66404780186308    0.04363807988491

