80
CSD_code = LENMOH | q = 0 | S = 0 | Stoichiometry = C37H33BN6O2Zn | MND = 4
Zn        1.50249669124259    9.00456663306553    4.72583863809637
N         1.31658495082717    7.52357334712702    6.01275255132721
N         2.05057236798358    7.65012259344258    7.12477243643208
N         1.85511317192955   10.44837653029361    6.02364622007071
N         2.56875538667212   10.07741692864949    7.09410815668951
N         3.49676266722454    8.64962742432573    4.64746460610908
N         4.02696472601661    8.45261378401419    5.86608717472975
O         0.74827704781206    9.06554030877825    2.92610039710763
O        -0.57195113827798    9.38440264646218    4.62843216527005
C         2.14821029359142    6.72738099375474    9.44346085607333
H         3.20819488596579    6.48740074313076    9.38978209598607
H         1.63513169752994    5.94641048114825    9.99789444491330
H         2.04226945883971    7.66724832972926    9.98300423618014
C         1.56408081504161    6.83914993823555    8.08123179095441
C         0.46620322502782    6.17761807621365    7.55731259245228
H        -0.14709210894205    5.45057754319715    8.04967338500900
C         0.34585985353462    6.64276826894970    6.24333473528045
C        -0.62998746534598    6.34412234381311    5.20268088782159
C        -1.97899756468419    6.20372446400693    5.51394028220634
H        -2.29640570273768    6.26928664527767    6.54433788603360
C        -2.90947392450171    6.02165987236191    4.50802805158416
H        -3.95731180627159    5.93001339111505    4.75545165823120
C        -2.50455644703612    5.97299007633683    3.18463415426455
H        -3.23533425491170    5.84899098666978    2.39878582460823
C        -1.16048915735695    6.08617442656723    2.87029671507416
H        -0.84022631656016    6.04391227943874    1.83966896675979
C        -0.22536507525726    6.26651833949995    3.87168564630704
H         0.82432565308571    6.34895184367387    3.62506966316040
C         3.18349183795174   10.95504757838084    9.35308803367653
H         2.80657693859276   10.11622968699520    9.93549016616266
H         3.01306993931790   11.87289792519547    9.90905175920348
H         4.25430331650313   10.81644208932912    9.21735631915834
C         2.49474100606988   11.03387991264847    8.03823549824875
C         1.68991150351053   12.04899925590818    7.55107461346302
H         1.43330782303341   12.96474678477908    8.04361597259489
C         1.30548325487317   11.63498581162809    6.27107970432642
C         0.42965177324383   12.26112549583496    5.28856737232212
C        -0.73560768023834   12.90877910249888    5.68772675749878
H        -0.96634124858543   12.98831652005034    6.73997444457647
C        -1.60999333757173   13.41256719030902    4.74284730698882
H        -2.52022767925779   13.90101918549708    5.05990958919300
C        -1.33179158354616   13.27807088826782    3.39295004662362
H        -2.02588127047044   13.65539590640297    2.65624379478063
C        -0.16137793683825   12.65739125356497    2.98912273251395
H         0.06135059345832   12.55534483637160    1.93702969837778
C         0.71803121242495   12.15754156126111    3.93006774192466
H         1.63852579337011   11.68525718331116    3.61785976289918
C         6.16127304677928    7.64532384648248    6.89494421330447
H         6.30552121523852    8.51674559976465    7.53055122005703
H         7.12815533868687    7.31290579635499    6.52701425219902
H         5.72349388000120    6.85345626573750    7.50015595161118
C         5.27940420707416    7.97377498999478    5.74438004478861
C         5.55747424790375    7.85384375390329    4.39583923306754
H         6.47075555631649    7.51705151269165    3.94944069091500
C         4.40314878897726    8.29560818153817    3.73869508571654
C         4.15449996417058    8.38922329586621    2.30516041989349
C         4.61245746873488    7.39048497774812    1.44916531295293
H         5.14582588435376    6.54339547669747    1.85600071467772
C         4.36677243193133    7.46939624703300    0.09124545860866
H         4.71904454535592    6.68670401373732   -0.56538508064105
C         3.66534399272128    8.54551566545954   -0.42708406234471
H         3.46965749430495    8.60197247594934   -1.48823065533958
C         3.21991178094710    9.54916507056723    0.41717355802793
H         2.67896614772808   10.39317634349956    0.01470685344578
C         3.46619064726122    9.47615379022167    1.77465831786894
H         3.13691671669087   10.26462683398359    2.43247382741691
C        -0.39940473566952    9.29920820709044    3.39893799184740
C        -1.53895560056896    9.47475053183562    2.46391950738826
C        -1.33942286613341    9.36299800099715    1.09287042470471
H        -0.34555220501644    9.14516718034180    0.73163110059621
C        -2.40415493033254    9.52975217266276    0.22732926082852
H        -2.25388911459602    9.44364316893952   -0.83932961308648
C        -3.66669496084329    9.80776167366723    0.72722116332446
H        -4.49779029902120    9.93798601433678    0.04868296631296
C        -3.86647327662110    9.91935479641218    2.09426957243952
H        -4.85257520561033   10.13632808511056    2.47881019381101
C        -2.80517279022642    9.75350129940221    2.96378399349306
H        -2.93023418259921    9.83545125770712    4.03242945568056
B         3.20397506536076    8.67563987986040    7.14401611029702
H         3.87039556042559    8.54925618690088    8.10815498287504

