76
CSD_code = LENPUR | q = 0 | S = 0 | Stoichiometry = C31H39MoN5 | MND = 5
Mo        2.00444415284360    1.02345508895599    8.84611532222858
N         0.43210748467043    1.89961477346874    8.33267786489472
N         2.69337020116879    2.22813271799295   10.38159968772553
N         1.44150989264401   -0.32518996384485    9.75335305437308
N         2.56613189996241    0.07132258416509    7.09673431871466
C        -0.36189233714200   -0.05364313958078    5.77006779290942
N         4.21255218974779    0.56041029497486    9.06352766408590
C        -0.15163058534192    3.49136935808889   11.18594687312001
C         2.31062631464650    3.40695961626456   10.96611095641991
C         2.11046872777189    0.01864060394754    5.80557263346901
C         0.82074140583575    0.58439900455542    5.37658539338027
C         1.02421496034221    4.06858165827834   10.69248876680521
C        -1.57604973630864    0.42738130466993    5.30119879783660
H        -2.49011235105813   -0.06968052843073    5.59737091864666
C        -1.35811239186801    4.15212139569067   10.99904835193247
H        -2.26609385296868    3.71016445728019   11.38704462303955
C         2.97111569086100   -0.73331990759071    5.03439505053317
H         2.85995714186093   -0.94855444883211    3.98894575034888
C        -0.30488677765878   -1.26134494223315    6.65467287061384
H         0.16494632499516   -1.01866671746945    7.61317440619747
H         0.29894302407742   -2.03573304987376    6.18221226841799
H        -1.30187944709946   -1.65442051041719    6.83680937026006
C         3.86685718568200    1.86401871787580   10.98979463496509
C         0.97621176148605    5.30582741108890   10.04453517963660
C         0.76907861829382    1.67485542533990    4.50505047129202
C        -0.24710417901458    5.93844430629879    9.87304157390728
H        -0.28277521025763    6.89383915849249    9.36702786413774
C        -1.64506154704870    1.51929646835591    4.44613658824683
C         3.71475171987802   -0.67656222897336    7.12691344827043
C         4.24226701552146    2.79579908216701   11.92415084748338
H         5.11585075542494    2.76858818641925   12.54713010686225
C        -0.09496419991991    2.19659037103428   11.93732800584183
H        -1.08372083995766    1.90775515328927   12.28459102485567
H         0.56543445080686    2.29904542858221   12.79808184003834
H         0.31023712205945    1.39883319575069   11.30665275172995
C         2.23085741132916    5.95744552559496    9.53984918222952
H         2.02571005144903    6.56591272293090    8.66084307301041
H         2.98492794685025    5.21177257201116    9.29397783569907
H         2.64888618597931    6.60616199621853   10.30979090841429
C         4.47525219165209    0.59026871580252   10.50600960521551
H         5.55227385698996    0.53078639882406   10.72924346071103
H         3.95861367058123   -0.26662030417853   10.96160662162302
C         4.00368651029319   -1.17801627549895    5.88305588159059
H         4.84044116451428   -1.79429045092597    5.61466559743170
C         5.10291790658543    1.51496948823253    8.40030918883151
H         6.15403360557042    1.22873605424873    8.54698052670899
H         4.96219537802039    2.51574544721289    8.81829658976148
H         4.90316169715477    1.53342058864890    7.32523519914840
C         4.39400344977154   -0.76059471319033    8.45289521341151
H         3.88412695495560   -1.49954845126296    9.08747966239864
H         5.45854443174723   -1.02811706533134    8.36041419437815
C         3.24086555142488    3.78627352747793   11.91045801407688
H         3.19498307052177    4.66340373185572   12.52702330213843
C        -0.46286984104523    2.13132461590301    4.05589416513062
H        -0.49960440318689    2.97848810585185    3.38428973673212
C        -1.42454816747259    5.37311629608929   10.34272117546316
C         0.50953634075916    3.10713655898517    7.53705999509671
H        -0.01824286894341    2.97699886345611    6.58399658839546
H         1.55523263305074    3.35980393013470    7.32458849175718
H         0.04777420404902    3.94968412025993    8.06697423728808
C         2.02784641592542    2.35167043198871    4.04583541509362
H         1.85254527609328    3.40911075667661    3.85572627796026
H         2.37963961523951    1.89568220894887    3.12024445410314
H         2.81913498003497    2.24502827498211    4.78587345377759
C        -0.95371810961071    1.58196818727339    8.59535636394369
H        -1.43772915061093    2.40491734377817    9.13530146649819
H        -0.99553086329534    0.67463608526766    9.19667010318020
H        -1.49402440679974    1.42534932350054    7.65376356263457
C        -2.73455100300712    6.07241912167877   10.13342057530022
H        -3.00077286078169    6.06933382410204    9.07591345698202
H        -2.67010136458530    7.11015403181549   10.45624736636451
H        -3.52996089987695    5.58227309924942   10.68905226993934
C        -2.96736663813977    2.04030612214682    3.96790034627448
H        -3.72985436589511    1.26680241900931    4.01840689841767
H        -2.89437821145879    2.39741864164134    2.94281837978363
H        -3.28997193075405    2.87543780283139    4.59172408988452

