76
CSD_code = LENQAY | q = 0 | S = 0 | Stoichiometry = C31H39MoN5 | MND = 5
Mo        1.10989091610598    1.85008240477965    3.28136628780877
N         0.08823984546618    3.23025956327728    3.21289129565428
N         0.34412525891735    0.39202038957920    4.48503049742682
C        -0.01741403628338   -0.76746616130464    3.84873360847943
C        -0.05369899561932   -0.72084023868070    2.35387008037726
H        -0.80184252625139   -1.42189085388629    1.94809177052579
H         0.92493651957816   -0.98036791930284    1.91162169594287
N        -0.37032643565119    0.66977755046315    2.00161319065601
C        -0.09484658350329    0.93430912936925    0.58503937756740
H        -0.48192801607820    0.12903698828003   -0.05960754252449
H        -0.60199387081511    1.87276534279311    0.31871716368336
C         1.37809015585051    1.11275762116946    0.43365729901560
C         2.25413049448469    0.82625563771684   -0.58440671151695
H         2.02467324032270    0.33856515038645   -1.51274114296476
C         3.51016580845275    1.30771861704045   -0.16818253576087
H         4.42686237989525    1.27038256173840   -0.72440773934221
C         3.33654510951224    1.86886815499641    1.08068596652860
C         4.33752686920924    2.58022517910055    1.88825295917156
C         4.15007024350062    3.93967307046334    2.18160342119331
C         5.12430742324465    4.61641033248787    2.89907183326379
H         4.98223026235171    5.66561448351915    3.12067411875209
C         6.28854001036872    3.98828951135315    3.32400304952683
C         6.46863624337022    2.65143301014372    3.00782407564889
H         7.37310861118404    2.14709608110190    3.32047292664369
C         5.51257542781135    1.93939208077517    2.29421069962475
C         5.76534940284905    0.49268686211200    1.98212219520049
H         6.35950697596332    0.40441481562113    1.07250992021462
H         4.83320536006120   -0.04479325025500    1.82138410073621
H         6.31918804801718    0.01717377707064    2.79001203192660
C         7.31417300326479    4.74338863283062    4.11526017583978
H         8.26639880206154    4.21849708543573    4.11974274806087
H         6.98295180611748    4.85899803748201    5.14825570355930
H         7.46274199560557    5.73837862068065    3.70055272718152
C         2.93865918663166    4.66870914226387    1.68526649071666
H         3.05745475889211    5.74110324999161    1.81940565891139
H         2.04057361421111    4.34360632720212    2.22322675453952
H         2.78369297100980    4.45921030120157    0.62706460097395
N         2.02404557964301    1.74743870988256    1.46129942896381
C        -1.78264833931522    0.92477407304772    2.28691730853805
H        -2.42579686799545    0.35365322368263    1.60394651973033
H        -1.97720718713878    1.99151079462876    2.17902489002030
H        -2.01030569291387    0.63600628652818    3.31367437094410
C        -0.32784195251852   -1.74195397218852    4.76494598491794
H        -0.64563902703938   -2.74563041872276    4.55438341523220
C        -0.13357931986574   -1.16263893518726    6.03455569416260
H        -0.29126753448543   -1.63790694994610    6.98321855378677
C         0.26783794897343    0.14208683318336    5.83149331612453
C         0.58731232973946    1.16710339738268    6.83628225987077
C        -0.15975529975934    2.35276476881654    6.89597189407541
C         0.17229523231601    3.31590446167738    7.83633728045972
H        -0.40074526637707    4.23147610693767    7.87526580572927
C         1.21470645686835    3.13187673428659    8.73405673686275
C         1.54998410491705    4.19588140273074    9.73591645612196
H         2.49420950106647    3.98272884531391   10.23138929991214
H         0.77047605607772    4.25516910716590   10.49546773372419
H         1.61746102786928    5.16883495638944    9.25210731290423
C         1.91006798077231    1.93360244332400    8.69792567098283
H         2.70715609464193    1.75885309942039    9.40836246264296
C         1.60610021521802    0.94533555957863    7.77100115531476
C         2.37278563993734   -0.34673976894336    7.81615841808378
H         1.90084357327605   -1.02802244032379    8.52468409176305
H         3.39547880515864   -0.17845902126799    8.15078293919908
H         2.38717515383630   -0.83808410717850    6.84601503912594
C        -1.33411089903206    2.57082066039076    5.99562154979725
H        -0.99203431825379    2.93512742014148    5.02060459539837
H        -2.00923030530895    3.30763461542146    6.42341990144559
H        -1.87636108355919    1.63892045208807    5.84164509888925
N         2.44042436677031    2.41419196251940    4.47413395183572
C         3.48883149989112    1.51032468047410    4.89226998837644
H         3.42670870391275    1.33199964942471    5.97255741355715
H         4.47708761990163    1.93457630773575    4.67725740623543
H         3.40230048272888    0.55167668503000    4.36961477501317
C         2.57198875838771    3.66879419939199    5.17803215819661
H         3.52248033074796    4.15423636704155    4.92282342031217
H         2.54730676765691    3.50542540352738    6.26286047976818
H         1.74155858314824    4.31396511760342    4.89078646875037

