79
CSD_code = LENSOO | q = 1 | S = 0 | Stoichiometry = C33H43N2Ru(1+) | MND = 8
Ru        2.85926898180528    1.52584295725960    4.15122599563503
C         3.74063814565979    1.49517483374704    6.85495967193874
C         3.46396809880490    2.69104035561648    7.52983500782900
C         3.66177049086165    4.00944416457259    6.84244694917450
H         4.66894122130687    4.38580179330125    7.02393056752533
H         2.96170888588093    4.75010627466061    7.22088149963081
H         3.53684288919560    3.90456227117223    5.76052496114908
C         3.03148594781342    2.62894509882407    8.84812803705052
H         2.82178566716314    3.54670925197934    9.37724247703108
C         2.88741875634877    1.41139362014814    9.48972241174954
H         2.56154688283669    1.37947241910680   10.51736950683455
C         3.16727491891854    0.23562531193300    8.81562364510422
H         3.06106165300392   -0.71309593341663    9.31933846909067
C         3.60288128600008    0.25821666268001    7.49851466672054
C         3.95493604382367   -1.01066985855192    6.78084518887778
H         3.82326511178257   -0.89652580426432    5.70107789498659
H         3.34753290696216   -1.83761496401888    7.14074011367923
H         4.99846603656891   -1.27222937726895    6.95912300668156
N         4.25747624847925    1.53887723357570    5.53709291170434
C         5.58491185107529    1.59053830894466    5.44292830833271
C         6.42662668965934    1.62832620927148    6.68912853379921
H         6.14957459451319    2.47165039338717    7.31829411951191
H         7.47833863695371    1.71397817944209    6.43552883521719
H         6.28452426055537    0.72510539260111    7.27932726654915
C         6.24515723577852    1.60353147273564    4.21907621395032
H         7.32254799126825    1.62812517419681    4.24065843602522
C         5.63452825400336    1.58783202127825    2.96976149065815
C         6.52637884019031    1.59059581557778    1.75834357192225
H         6.31231605971332    0.73771286726038    1.11764643910389
H         7.56981636639780    1.55074598446122    2.05390505564201
H         6.36828120806386    2.48837595725670    1.16393595732213
N         4.31094488520259    1.57901386409323    2.82239065052105
C         3.84590905409442    1.60211519940480    1.48483242076887
C         3.65129841815091    0.39654045854998    0.79867306733195
C         3.88158347219803   -0.91317687311611    1.49249648798581
H         4.91114353179043   -1.24309472146440    1.35047994534207
H         3.23123509782060   -1.68387304553053    1.08633562889392
H         3.70968213634871   -0.81664771364214    2.56872896418735
C         3.26941353096745    0.44205233471250   -0.53582180535761
H         3.12314333095930   -0.48303792644159   -1.07343934069370
C         3.09569633992791    1.65331298544964   -1.18197527023993
H         2.80995845362722    1.67282731741492   -2.22180925087748
C         3.29461286579603    2.83896158196765   -0.49655321605219
H         3.16549247643869    3.78309088013179   -1.00353605150484
C         3.67783015401534    2.83304973729491    0.83692730798719
C         3.94277069286649    4.11507006357826    1.56857389885001
H         4.97900644971279    4.42537569752478    1.43038206034626
H         3.77550005026507    3.99221134205147    2.64245368768653
H         3.31163122631376    4.91376325673130    1.18637244057512
C         0.82718381781081    2.21278494229767    5.32137192795210
C         0.90987607305805    0.81048903439477    5.36092364860747
C         1.13799865357558    0.07409147896140    4.14792621997460
C         0.91049913044091    0.74651096536158    2.90118553696673
C         0.92906221063723    2.15119016880888    2.86373319347064
C         1.07360314561947    2.89618047777695    4.08427746314592
C         0.31673516512952    2.94688631434537    6.52875943668303
H        -0.64379001742552    2.51583559918584    6.81116253011959
H         0.16248996141618    4.00117800240640    6.33271281556040
H         0.98499333733025    2.84750983667224    7.38148326725966
C         0.52633915403124    0.09190827687127    6.62311018125278
H         0.83356201040074    0.63854129841799    7.50890486314902
H         0.94617568207652   -0.90527998182309    6.68055977303397
H        -0.56116215127338   -0.00480945860195    6.64326726139165
C         1.16586046017096   -1.43225548880636    4.18833184856291
H         1.72187968956979   -1.79604506546940    5.04785867057540
H         1.63397696352123   -1.84493791985700    3.29890034797666
H         0.14930544323877   -1.82266013572569    4.25772325339385
C         0.48401592930016   -0.00919636759649    1.67473237194210
H        -0.48702840624646    0.37191789240741    1.35810400775108
H         0.37856177812071   -1.07099280409244    1.86280454213899
H         1.17680287050993    0.12854462950629    0.84726798831329
C         0.56306236162938    2.85256824129307    1.58678834522376
H        -0.52608303456768    2.89687477796044    1.52240670152771
H         0.93177070796094    2.32286057692292    0.71429823672521
H         0.93649295020285    3.86882740850959    1.54621822850512
C         1.03361329246694    4.40224600435735    4.04357103559204
H         1.60965881292071    4.79194407796457    3.20894627755180
H         1.44250648828926    4.83523239747107    4.95228542630701
H         0.00421319218506    4.74540629387235    3.92891576314970

