43
CSD_code = LENTUV | q = 0 | S = 0 | Stoichiometry = C19H18CoO4P | MND = 5
Co        0.33949218104475    5.36451089371791    4.74285284655916
P         0.57190699179712    3.13737694709705    5.05846638730735
O         0.22967210783603    5.86553205622898    7.63391912926634
O         2.72223681948305    5.91447108672814    3.10848661234492
O        -2.05258357675937    4.34555551391494    3.37831615949037
O         1.12416096047973    8.02672036786376    5.00248990436372
C         0.28458365081684    5.66493452608220    6.50626115815848
C         1.81483101526905    5.62511389292637    3.74461493728889
C        -1.18370226729749    4.91138466247273    3.87355281656668
C        -0.79471681482405    2.39443875785780    5.99935171050570
C        -1.88677840425849    1.79521164936421    5.38075269084809
H        -1.92704831756343    1.70972410590220    4.30483085335955
C        -2.93363184126777    1.30906010496227    6.14444330582719
H        -3.77767950803211    0.84220465943075    5.65823199760885
C        -2.90399645451342    1.42303082512406    7.52384815036335
H        -3.72379905108044    1.04343672951589    8.11526863731815
C        -1.82370555883132    2.03060483788921    8.14447404653695
H        -1.79985709200466    2.12683378991752    9.21986992523383
C        -0.77704889258137    2.51932058398167    7.38735816820787
H         0.06631248669213    2.99796128008416    7.86761203901424
C         2.01112268535854    2.56631063351770    6.01864120579025
C         3.05916194516209    3.43550446456769    6.29041560869278
H         3.00099511113205    4.46235251169828    5.95257534810405
C         4.16452919018898    2.99076091662120    6.99535475000466
H         4.97658711145925    3.67073279594832    7.20548935026374
C         4.22517245436319    1.67862401872635    7.43219601785446
H         5.08563052943867    1.33180932569500    7.98485996610739
C         3.17852317538163    0.80865946176301    7.16576000916362
H         3.22395243303849   -0.21388923315660    7.51096165619776
C         2.07412403875264    1.24701282565496    6.46100197844852
H         1.25245647292211    0.57165746687768    6.26323660240234
C         0.68770478417147    2.02917748235731    3.58390523534827
H         0.60378802768724    0.99390138333330    3.93105196579222
H        -0.15954019941104    2.25074308609471    2.92854979066266
C         0.21391046878114    7.31853826299190    4.67560293660231
C        -1.09782650427213    7.90897911732922    4.19727857002677
H        -1.04968895707720    8.99457301669727    4.28917957900069
H        -1.92792623557744    7.52635135003373    4.78621509744065
H        -1.26470568040451    7.64204345221753    3.15581410758409
C         1.99286793910974    2.24015288330341    2.82903141857544
H         2.06441353976892    3.26369450740065    2.46648870542576
H         2.04457884860672    1.57084086732993    1.97244325053306
H         2.84832038682759    2.04314213177340    3.47374537387264

