45
CSD_code = LENTAZ | q = 0 | S = 0 | Stoichiometry = C19H18FeO7 | MND = 7
Fe        2.45835423134711    4.85528869602438   27.36555932661592
O         3.34643799470034    2.91567197666343   30.12589186233986
O        -0.85536244590552    5.23275786737508   25.13857853642136
O         0.59486066553757    3.63361029744481   24.49088256775588
O         1.66117947209712    3.69465734995740   31.54812802999950
O         5.21205501793154    4.93834262099753   28.29447758754403
O         1.81942930678834    7.69044093813675   27.72064406164736
O         3.43395989045922    5.03830092541602   24.63272318568126
C         2.62717975183065    2.12634891679064   29.19169387972410
C         2.52953506641395    4.00741849020470   30.49810229211946
C         1.67080960776692    4.31269976825992   29.27651828927802
C         1.74128764406994    3.11554704808804   28.48511718132246
C         1.20155948710916    3.08659794192878   27.20320227929150
C         0.47541742342000    4.26031004503278   26.78702991287313
C         0.10163399421234    4.31746217217805   25.35892706273268
C        -1.22672322503326    5.45858209071184   23.77866586370802
C        -0.23594210154840    6.38041280590563   23.08193174425378
C         2.32338715727270    3.42650189741341   32.77129157311579
C         1.33168213505620    3.07709242371171   33.84670219837875
C         1.76000003782196    2.39387425493657   34.97855375090181
C         0.86826836176025    2.08832742282366   35.99050230413962
C        -0.46223753239229    2.45665489168290   35.87920253199515
C        -0.89452181550536    3.13341174263391   34.75211199088366
C        -0.00154171591806    3.44591113504754   33.74168628443667
C         4.13164646572867    4.86420136998123   27.93332004214279
C         2.05141131965185    6.58169823375115   27.58945558758174
C         3.04268505483156    4.91757346154049   25.69668074840883
H        -1.27690709896761    4.49582677183222   23.25942750029777
H        -2.22013128048163    5.90891562394336   23.82721307554482
H        -0.57718174174083    6.58652470668080   22.07158096499104
H         0.74091857020407    5.90529046921211   23.03418393532088
H        -0.14653611518496    7.31705980522616   23.62717109696946
H         3.03908865889635    2.60450296306581   32.63270735507319
H         2.89799961545669    4.31990777514529   33.07305124894953
H         2.79718188312882    2.10239209774226   35.06538310310008
H         1.21152543624155    1.55828032365951   36.86686763502431
H        -1.15864908291529    2.21553817035874   36.66871767715732
H        -1.93131255952382    3.42243531861808   34.65991593501484
H        -0.33028782073453    3.97198855802092   32.85950697404259
H         2.00415818305735    1.38210782156635   29.71272240115609
H         3.35068794422896    1.61306558883864   28.55643231508276
H         3.21463340613192    4.81564322491610   30.80207986884040
H         0.71749467659649    4.75973743045208   29.53622485532632
H         1.33243729151686    2.24831260805612   26.52877134053595
H        -0.28817121541525    4.67577395802683   27.43906204227952

