50
CSD_code = LENTON | q = 1 | S = 0 | Stoichiometry = C18H20N5NiO4S2(1+) | MND = 6
Ni        0.51813928051290   14.00147646161334    2.24827678460668
S         1.00214490254510   15.81613936255624    4.17868086882887
S        -0.78025769467992   15.65542064123604    1.23378090683933
O        -0.38348071057957   12.47574613244920    0.56087964246485
O         1.54116340296660   12.27398773262668    2.46595623022585
O         2.59056995535012   13.44827296557342    3.89912860581338
O         3.21679921524438   11.44110678648163    3.48505476401889
N         2.03260996434493   14.79529649389713    1.46719114453773
N         3.95756808239825   15.87208370256592    1.39864276156916
N        -1.02452587466220   13.47560554791160    3.23746253695029
N        -3.03134820617794   13.88927420660035    4.07542063985514
N         2.49376275294015   12.37879517037162    3.31504140507966
C         2.62540347154757   14.52132198003371    0.25085212184760
C         2.18190737095060   13.77573362784445   -0.83611916159853
C         3.02019197299432   13.69602426864561   -1.92771794117818
C         4.25975733062132   14.34110786827288   -1.95539681155631
C         4.70078407800705   15.10759187274342   -0.89607784894309
C         3.86322153486670   15.19122184040054    0.20521454254383
C         2.84806283675628   15.60514978295734    2.12100563336646
C         2.63340385097426   16.19665007563994    3.46935081007819
C        -0.01787621117506   17.19036884221406    3.52478360191165
C        -0.22697561998908   17.21037535133137    2.01906073043817
C        -2.32753978790482   15.28991681092315    2.13501866782540
C        -2.10561495512286   14.23011665794075    3.15346029971719
C        -2.52414860965220   12.83925913241848    4.80746141460674
C        -3.04917412387382   12.11223153179433    5.86415662663561
C        -2.26669878944919   11.09419787457545    6.36740263970430
C        -1.01282026753167   10.80490505522135    5.82353468470648
C        -0.48780014175106   11.52569213329891    4.77261193978913
C        -1.25013673045039   12.57369219774545    4.26321192438717
H         1.21521730625734   13.30095871806374   -0.81793481555116
H         2.71335558135296   13.12270349501322   -2.78809468957941
H         4.88242041958827   14.24371854087682   -2.83043094795651
H         5.64954222766029   15.61879021294301   -0.92079392330420
H        -1.16085867354041   11.99841750313162    0.86529905436406
H         0.34931334357081   11.84948101652212    0.63440773879607
H        -4.02453765136584   12.33349214690984    6.26674010906580
H        -2.63226936176471   10.50277260632354    7.19160956052629
H        -0.43973959080615    9.99045352018651    6.23709436202856
H         0.46828123606298   11.26923321548106    4.35446882242250
H         4.74642988977363   16.41708902987933    1.70848859046258
H        -3.93684407264709   14.31251670909757    4.20134770205821
H         3.33718649088254   15.74632307687003    4.17423393276040
H         2.77267578788242   17.27916810227969    3.45815648056185
H        -0.96478036511206   17.08697473677184    4.05453284334371
H         0.44020339646216   18.13069032392086    3.83238899784397
H        -0.96324635121001   17.97325864316777    1.76047553951482
H         0.70209285686220   17.44211690016937    1.49649135107810
H        -3.03378310561023   14.93922734672523    1.37643302198161
H        -2.71595164421891   16.20965204720339    2.57295610494657

