50
CSD_code = LENWAD | q = 0 | S = 0 | Stoichiometry = C20H27AuClP | MND = 2
Au        4.02136406381579    2.69370068814900    6.31249895493793
P         2.21173101937986    2.69370123939045    7.66342342366879
Cl        5.89883296421503    2.69369855403181    5.02568579210960
C         0.55137105955283    2.69369860795573    6.90056637500331
C         0.40815167573254    2.69368436553867    5.50745568206649
C        -0.87031594410738    2.69367911914287    4.95505927382837
H        -0.96592041765923    2.69366354403476    3.87867767954990
C        -1.99801550856336    2.69369672498029    5.75232957551131
H        -2.97986666214620    2.69369748761187    5.30325432280088
C        -1.85848149900752    2.69371366098647    7.13006623374503
H        -2.73104989225419    2.69373000387174    7.76675597048140
C        -0.59757849327642    2.69370920343543    7.69417287461840
H        -0.50809743765003    2.69371498309616    8.76724829006184
C         1.54104738881145    2.69368550067691    4.55485203827630
C         2.04149694641282    1.49308531271031    4.06016178701470
H         1.63710530246301    0.55867437545201    4.42446055555993
C         3.04884416900730    1.49600539903005    3.11220376332657
H         3.44264025584224    0.55971444675890    2.74626888129449
C         3.55732246811860    2.69370687390278    2.64052436197269
H         4.35316374600899    2.69371508389657    1.91264554807302
C         2.24876319904586    1.09327954396020    8.66933154963652
C         1.16247948612207    0.85791127783696    9.71581386715671
H         1.38879193163688   -0.06890534546805   10.24285385379824
H         0.18337650288428    0.74393219817394    9.25869228817831
H         1.12784966688978    1.65436514193530   10.45481607500504
C         3.62080996324091    0.99281085483265    9.33673596018149
H         3.67651969107334    1.61741392848319   10.22491821494473
H         4.41254015139257    1.29042369068604    8.64801918871477
H         3.80747378512440   -0.03660690908435    9.63938296802097
C         2.13780852852814    0.01784918666970    7.58281906774346
H         2.92571735412723    0.14232132146640    6.83858277341210
H         1.17234672463314    0.07254419547031    7.07942280072935
H         2.23772145926143   -0.97242052192953    8.02402969798858
C         2.04149078307706    3.89429670274550    4.06018086229385
H         1.63709218383628    4.82869857295963    4.42449496348377
C         3.04883726056942    3.89139824650873    3.11222251428173
H         3.44262688087508    4.82769782695601    2.74630321275338
C         2.24876250641570    4.29412178761136    8.66933443889454
C         1.16248198685288    4.52949561394969    9.71581928190739
H         1.38880556486509    5.45630767238411   10.24286271347107
H         0.18337947172896    4.64348883255375    9.25870039441511
H         1.12784452561895    3.73303940269766   10.45481859812887
C         3.62080983417332    4.39458757908844    9.33673837412468
H         3.67651759991750    3.76998419108658   10.22492056157103
H         4.41253960660764    4.09697327475731    8.64802192601635
H         3.80747553660022    5.42400490402767    9.63938588638038
C         2.13780825111016    5.36955233013507    7.58282208036356
H         2.92571723836490    5.24508035555866    6.83858596757069
H         1.17234640048004    5.31485695532427    7.07942575950890
H         2.23772072025154    6.35982201396945    8.02403277542227

