75
CSD_code = LENXEI | q = 1 | S = 0 | Stoichiometry = C32H41AuP(1+) | MND = 3
Au        9.65637845941596   11.57292557161960    2.72451796079868
P         7.55531578060811   12.45365818728483    2.67243101222638
C         7.34324141500109   14.25471567135334    2.69325879728512
C         8.42545789457708   15.13763691709185    2.74028487074594
C         8.17352388628880   16.49899530430738    2.89739473747808
H         9.01049652988246   17.17993167767821    2.94178096231198
C         6.88112306351842   16.98124933361093    2.97439848242141
H         6.70787856080944   18.03977534414008    3.08957706614036
C         5.80835384796722   16.10568737590663    2.89584612076476
H         4.79691259497100   16.47848948074633    2.94163761209276
C         6.04007346991265   14.75120157224918    2.76765347095549
H         5.20383290194683   14.06737058743422    2.71539481951493
C         9.82733192590243   14.70158356419349    2.59354004465531
C        10.74367221018321   14.90105913825958    3.62126214156502
H        10.40706671953944   15.32223010656234    4.55720405200823
C        12.07529288877397   14.56840298709959    3.44463643330939
H        12.77927217556196   14.73080593565955    4.24671874328457
C        12.51177867351032   14.05575278350461    2.23375951643319
H        13.55710424918438   13.82695225000512    2.08941798007505
C        11.60763641075189   13.85812447077892    1.20226923116830
H        11.94663095791145   13.48115818300366    0.24843279844144
C        10.26940288917008   14.16662622210414    1.38366068018259
H         9.56693607724909   14.05396953766376    0.56954489863923
C         6.69711736684601   11.97964386926082    4.24031817536842
H         5.68223727689087   12.39652603167361    4.23079990226669
C         6.62771491084581   10.46235877983427    4.39955354745129
H         5.99533802313032   10.03137469500324    3.62087180216299
H         7.63681414947834   10.04534401607417    4.29228945796162
C         6.05936270538429   10.08396750271083    5.76619856449864
H         6.04685821643213    8.99744503715560    5.86380650565041
H         5.02840155156504   10.43619414410651    5.83775819503134
C         6.88297211255232   10.70308285594484    6.88932837485449
H         6.45424760240812   10.43301562225655    7.85460821432894
H         7.90254541990166   10.31369187787966    6.85262760067925
C         6.91300042588680   12.21988542134187    6.74008523858318
H         7.51095103923498   12.66515756348162    7.53642913634964
H         5.89877479661232   12.61497693578604    6.82419320683010
C         7.49651720147811   12.60814383453543    5.38534043958108
H         7.50314445959008   13.69649596067250    5.28100927311893
H         8.53515669230190   12.26053365016234    5.32131518165720
C         6.52299567574596   11.84128349647591    1.25963653287480
H         5.47782674499261   11.79593674305805    1.59521817681197
C         6.63860741640547   12.77570717174621    0.05267555296251
H         7.68640638369317   12.82623049168545   -0.25782541398815
H         6.31536074523435   13.78583499044629    0.31290278499617
C         5.79315639458917   12.24647132671813   -1.10329498509614
H         4.74297481115010   12.23010506449310   -0.80426044995829
H         5.88544070701807   12.91814912333087   -1.95757741382354
C         6.23266408412277   10.83983136594925   -1.49626118121470
H         7.26071213379208   10.86894120489335   -1.86420759113085
H         5.60055138930590   10.46562099039921   -2.30175931686437
C         6.14915287919509    9.90516354743889   -0.29410932902443
H         6.49638366153734    8.90835847511722   -0.56958439238232
H         5.10991319489805    9.81779664006145    0.02945214018924
C         6.99524968547998   10.44114854316934    0.85862392288733
H         6.94899342102059    9.75431490393960    1.70602575205023
H         8.04252949372299   10.50353585886267    0.54238249811851
C        11.23166578398433    9.49083513510714    1.98781038776167
C        11.63477653743083   10.55952173322125    2.81505749312997
H        12.27718468318947   11.33073275840143    2.40984063338207
C        11.48020638536627   10.46282161287684    4.21267267606486
H        11.88047782860320   11.24651737749661    4.84031673761492
C        10.90293357670081    9.33895549326918    4.79459015068940
C        10.48711196889630    8.30545161685870    3.95938435106402
H        10.05193521479034    7.41860540618475    4.39540246500186
C        10.64450958264322    8.38054547690871    2.58817255546884
H        10.33443788887697    7.55130818803747    1.96975239303117
C        11.50098811514842    9.51384856118700    0.51745574229711
H        10.66039781032763    9.10609843769190   -0.04031169655530
H        12.37029063942400    8.89375044233696    0.29763207238738
H        11.70823548515233   10.52202412904181    0.16753296660610
C        10.77241809877996    9.22452147692175    6.27957063466418
H         9.89752468520100    8.63773613824823    6.54965053115244
H        10.70803404781391   10.20476928153593    6.74633520101574
H        11.64738531258823    8.71798679675640    6.68724216895449

