70
CSD_code = LENZUZ | q = 0 | S = 0 | Stoichiometry = C20H38BCrNO5Si4 | MND = 6
Cr       -0.47413929875831    2.72114192622750    3.03683968488843
Si        2.12273400138403    8.12754263315496    2.32844366029572
Si       -0.03469708977949    7.03268762990781    0.16520804631553
O        -0.47523525524402   -0.28825715251223    3.03640132516876
O        -0.90864535487138    2.46645927403413    0.06208317663459
O        -3.44667661901771    2.58299844654985    3.54542741143729
N        -0.47460404202823    5.81750969740735    3.03669778212974
C        -0.47444572288953    0.86092585970959    3.03635076033898
C        -0.75146358461007    2.63497969377393    1.18645809174093
C        -2.32088167117939    2.67935761269131    3.34250911390203
C        -0.47454726085502    4.64694777411829    3.03644276437826
C         0.25868583168649    7.92794637299514    1.84797254598870
C         2.93490359888104    6.47906191993650    2.83659951077240
C         2.21844278140269    9.37066126992502    3.78015740179226
C         3.11118479935009    8.89325578227094    0.88500745197217
C        -1.78765230812627    6.27701613437586    0.05594071143176
C         0.10821917163327    8.33246890505709   -1.22787009263721
C         1.18154947135061    5.59509560789260   -0.13238715849277
B        -0.47453143333097    7.23425020500081    3.03666206022166
H        -0.09580121764878    8.95571212809513    1.74443275338991
H         3.78156029295368    6.64705296644573    3.49527684850603
H         3.30197531721207    5.93261758719278    1.97503763223426
H         2.23768135884658    5.83167405953258    3.35780914765642
H         3.24660550523944    9.52988921992151    4.09114421255924
H         1.66278602309636    9.02602528954962    4.64589710064097
H         1.81438007751358   10.33799026529214    3.49703388145508
H         4.13090454025966    9.10111239309734    1.19385483844912
H         2.67639768789501    9.83017398330204    0.55227519529752
H         3.15974511749447    8.22883089233756    0.02939373475186
H        -2.02031180935939    5.99834499537806   -0.96772225342772
H        -2.56027706079176    6.96114875315422    0.39025280072116
H        -1.86183947621573    5.37652076341247    0.65941690813016
H        -0.05074832417023    7.87461328894372   -2.19887976974536
H         1.08317078152908    8.80545231811430   -1.24597128178131
H        -0.63364403511312    9.11694741689705   -1.11436419849376
H         0.88581139859889    5.01941215905892   -1.00439838493674
H         1.19400437327245    4.91534958733008    0.71570469809134
H         2.19648683383477    5.93914756167918   -0.29943318750205
C        -0.19614681653488    2.63517067095124    4.88713628727178
C         1.37241889398213    2.67941187188026    2.73001933881034
C        -1.20761769895545    7.92803234173778    4.22538266860737
O        -0.04035835533196    2.46694654689536    6.01175624005342
O         2.49836789746417    2.58264021556195    2.52819546808223
Si       -3.07166462762095    8.12761914852259    3.74489975814714
Si       -0.91424555466653    7.03272491264819    5.90812382659217
H        -0.85309039335729    8.95578527965514    4.32893690969668
C        -3.88385465632563    6.47915154183150    3.23673558524518
C        -3.16731941000444    9.37074256912696    2.29318549777653
C        -4.06011121565422    8.89334800748480    5.18832984060396
C         0.83872376449634    6.27706907953298    6.01736621146959
C        -1.05715726898015    8.33246906666457    7.30123447957879
C        -2.13045081865350    5.59509643351026    6.20570393206608
H        -4.73046740162967    6.64707977715875    2.57810014619116
H        -4.25093812928380    5.93267789844036    4.09819223523946
H        -3.18673427386444    5.83176360648620    2.71554083462328
H        -4.19547671344781    9.53002006199851    1.98220799848151
H        -2.61169714866291    9.02605077760408    1.42744656132270
H        -2.76319500997783   10.33805613032546    2.57627788222330
H        -5.07981830401362    9.10123202038711    4.87946030437886
H        -3.62531268941338    9.83024923354982    5.52109512883482
H        -4.10870846639968    8.22890301079267    6.04392545067430
H         1.07142287800206    5.99843179452367    7.04102982164674
H         1.61133391800560    6.96120001817199    5.68301392757027
H         0.91290047576586    5.37655543228099    5.41391177834519
H        -0.89819527084395    7.87459196223238    8.27223547615642
H        -2.03211060288422    8.80544730913107    7.31933571666514
H        -0.31529476627231    9.11695112437373    7.18774658388532
H        -1.83474271447876    5.01945352274611    7.07775180898861
H        -2.14284438774490    4.91532611206440    5.35762876262230
H        -3.14540253215745    5.93913730048121    6.37268861387530

