29
CSD_code = LENZIN | q = 0 | S = 0 | Stoichiometry = C10H15HgPS2 | MND = 2
Hg       -1.34025537562335    7.30513251005138    4.40928027241023
S        -0.99268472611047    5.78695980669198    2.17653646137313
S         1.39819566371196    6.63091741392588    4.49093829581669
P         0.91831530622168    5.62017114141303    2.84102930990716
C        -1.59413701838712    8.53600656506577    6.23935421157670
C        -2.77996273204865    9.15598487409939    6.61753487155189
C        -2.82289466855730    9.90727650612244    7.78324545818924
C        -1.69472064772735   10.04285362127024    8.57233664612844
C        -0.51403192343644    9.42660539897401    8.19680110260595
C        -0.46081394952913    8.67457103510675    7.03273039466347
C         2.03115911943045    6.09388901745832    1.44507368044207
C         1.86956583549514    7.56917925371771    1.11549313625698
C         1.27328839413399    3.81966593730882    3.06506489550574
C         0.44663027287056    3.25229106657552    4.20776700605735
H        -3.67539245216977    9.06412989820057    6.01738767242964
H        -3.74743587687431   10.38668280025196    8.07014708631298
H        -1.73585737102727   10.62875097637659    9.47874958695302
H         0.37131266803242    9.52790260506026    8.80686797473044
H         0.47409527716741    8.19902177710563    6.74832825148964
H         1.77384948353253    5.46508354247955    0.58830755595331
H         3.05426158564083    5.86941045881973    1.75990229450767
H         2.53665341991674    7.85697439735979    0.30583042441157
H         0.84384016232551    7.77829480675650    0.81213263365266
H         2.10060400639094    8.17640909728112    1.99074490146196
H         2.34389777823015    3.72551013405341    3.26873918395678
H         1.04200378081949    3.31788163200510    2.12133260759706
H         0.65645802725110    2.19377752302312    4.34544532898508
H         0.67785359570950    3.77711524924864    5.13494903194270
H        -0.61729763539036    3.37135095419564    4.00004972312933

