34
CSD_code = LEPBEN | q = 0 | S = 0 | Stoichiometry = C13H15IN2OSW | MND = 8
W         1.65754689675593    1.19482483184750    3.20786235742152
I         3.47746073294360    3.02082423110193    4.25938539558843
S         0.20133863623842    1.91554094938544    5.22739115450570
O         3.74642887263269   -0.00695785022104    1.23077072935690
N         2.85653018176476   -1.26139100168588    6.78484562447396
N         2.05565531340538    0.13180812556807    5.06870154812019
C         3.07027517490014    0.43395722579345    2.05458899683134
C         1.59534538810234    2.22561497867562    1.28673005289319
C         0.66777452213797    2.67793293657211    2.06441626133240
C         2.24449884313383    2.44726087879889   -0.02593541408693
C        -0.37337837849036    3.73140543336483    2.16683803177033
C         0.13009764001928   -0.26912395453168    3.07534771053367
C         1.03790473997055   -0.63932044085238    2.22606695296021
C        -1.17381432215765   -0.74712859761734    3.60297626411700
C         1.29800450328246   -1.69710189834051    1.21791565552249
C         1.17432386087855    0.72347085877624    5.93011391956442
C         1.14095098112754    0.31406871539115    7.27739477011068
C         2.00240447470740   -0.68433721006235    7.64776941976649
C         2.85164132147542   -0.82367983706379    5.55700154855745
H         2.65073642424814    1.52835270763871   -0.44906836269777
H         3.07054091665028    3.15007395324852    0.10215508892428
H         1.52827703402132    2.87730842069500   -0.72814464233295
H        -1.23396739194498    3.38879883552898    2.74176127970849
H        -0.70229083123430    4.04303996427325    1.17413512674879
H         0.04946410944794    4.59691474686028    2.68183582871989
H        -1.84483135423872    0.08620386808303    3.81206910304522
H        -1.01398895101099   -1.28905721293906    4.53846345724090
H        -1.65023870375014   -1.42353922717744    2.89069828603397
H         2.11769780361192   -2.34059202940567    1.54122630639110
H         1.57482962616806   -1.26596663834422    0.25521436222619
H         0.40445920372921   -2.30970431533236    1.08664380994636
H         0.45854011442095    0.78766839777128    7.96286489609652
H         2.04240936261068   -1.06248955428432    8.65943782827894
H         3.55657325444025   -1.27588029151535    4.86292665233116

