66
CSD_code = LEPDES | q = 0 | S = 0 | Stoichiometry = C29H31ClN2O2Ru | MND = 9
C         2.18570234587364   17.78951488321772    2.13691805857979
H         1.17951514021128   17.99659961381274    1.80243841622636
C         3.25780724794319   18.49141850235737    1.61587086840884
H         3.09030845535336   19.24643736955463    0.86167277764982
C         4.54367030802873   18.22808813305616    2.05934254126603
H         5.37899201778330   18.77297888800207    1.64486157590313
C         4.75690278389301   17.27233450580476    3.03875248414583
H         5.75827226772798   17.07111252968759    3.38964794860360
C         3.68710492732634   16.57777187198443    3.57462288460940
H         3.83709012159948   15.83227840099514    4.34133659795382
C         2.40001223526385   16.82125175251025    3.11079803536829
C         1.25625608101207   16.08401822658956    3.72025312334338
C         0.41475537575177   15.31111659808859    2.90089761726865
C        -0.84453402573050   14.77385067462537    3.32663939722421
C        -2.57733762821886   13.45746790331454    2.10583012862131
C        -3.34329524257416   13.12029102263428    3.21730700427518
H        -2.99597423864599   13.37886245331495    4.20404485666605
C        -4.53545294439477   12.44156233162069    3.04467076323362
H        -5.12683244455205   12.17867304774859    3.90993562345095
C        -4.97159917108182   12.09249171496306    1.77761757320555
H        -5.90491041335339   11.56397130292628    1.65134963078806
C        -4.20062673888490   12.41921604673332    0.67372682510176
H        -4.53090487836813   12.14333288111440   -0.31699397292263
C        -3.00870526871133   13.09874573466073    0.83077489419286
H        -2.39145983108919   13.35494725754964   -0.01490390469933
C         0.53743623026906   14.88109012231837    1.53831299504944
C         1.68030601584743   15.05189414717371    0.60388191034162
H         2.61919756112823   14.84626439236604    1.11311215720920
H         1.72049953908234   16.06792704952239    0.21504088676459
H         1.55422965554650   14.36310329402381   -0.22699376875641
C        -0.99897824329997   17.25597706302001    7.18125542170086
C        -2.14197260852768   16.43623865442334    7.08579118405205
C        -2.08740688409050   15.07699993668994    7.54799057150248
C        -0.93135494893021   14.59853510740471    8.20754448466108
C         0.22892388814965   15.44000430244060    8.31890987700558
C         0.18237716617628   16.76961378544414    7.84114074506325
C        -1.00816219969146   18.65519997531413    6.62163607113422
H        -1.69326451300923   18.73144903706902    5.78173062849957
H        -0.02001191476822   18.92395192549110    6.25680779790044
H        -1.30796971183375   19.37728787860923    7.38427817087995
C        -3.44188449150042   16.97541373618582    6.55094664610486
H        -3.48898312919995   18.05623108143515    6.64916372583755
H        -4.27832052664668   16.55441261870747    7.10437033912849
H        -3.56242010617137   16.71622393581172    5.49832019180061
C        -3.28484982570983   14.17852330509923    7.37218895220925
H        -2.96625134817826   13.15062431234470    7.21849887570244
H        -3.86176119832031   14.47281625468885    6.50020237458196
H        -3.93184424036302   14.21922803496986    8.25121874490726
C        -0.90162241733626   13.22489053674373    8.81723118630255
H        -0.30699696495603   13.22439024770821    9.72717590127622
H        -0.45186468408709   12.52121951173385    8.11334545950436
H        -1.90134792687850   12.88062445247366    9.06516480870465
C         1.47300664031318   14.87965401536867    8.95571126891207
H         1.60881442782789   13.84637947183016    8.64401098643439
H         1.40318941398645   14.91639266693622   10.04464200419210
H         2.35585453568866   15.42688244561340    8.64042900049276
C         1.33584335440330   17.71063561444149    8.06975131425194
H         0.97702321959541   18.72674673351082    8.21372509500287
H         2.01115550381635   17.70065916813283    7.21279893244118
H         1.89780272535054   17.42860464766916    8.95584351754998
Cl        0.76577568429280   13.35122629144775    5.69309225396819
N        -0.51316587492505   14.20625249023310    1.17271941383631
N        -1.36754134855646   14.14434228358636    2.23298400826604
O        -1.45770008770879   14.89379457736188    4.42512411602573
O         1.11138369774368   16.23858807959857    4.95912881523766
Ru       -0.34900054665481   15.35207316818464    6.15046118580657

