55
CSD_code = LEPGOE | q = 1 | S = 0 | Stoichiometry = C25H23ClN3O2Os(1+) | MND = 9
Os        3.56527458314656    4.48985532575426   13.04664018399084
Cl        2.65962661398362    2.50498495300659   12.55328923636540
N        -0.45151716471374    6.65845112555930   14.20214865969167
H        -1.29451792638324    7.15158217762759   14.47500907028955
C         0.31517596320442    6.14484606604199   15.22766554868129
O         0.02927139701540    6.29501909292605   16.38852064244587
C         1.50777922674263    5.44093928021536   14.74252053143547
N         1.85955079529775    5.32694368171354   13.44757208770634
C         0.97768416745750    5.77607027695457   12.49139453660807
C         1.20322307253366    5.51466864987408   11.13281322678135
H         2.05907532214873    4.91207505327032   10.85798562012760
C         0.32188642432570    5.96427830038584   10.17896936387085
H         0.49537707029111    5.74848295696038    9.13707993212104
C        -0.80913020845069    6.68831374607568   10.55742680480349
H        -1.49375468053037    7.04461269575266    9.80448982721648
C        -1.07048012548352    6.92935228626704   11.88784487410884
H        -1.95877522226890    7.46463301666236   12.18534670205866
C        -0.19563448190724    6.46643250180795   12.87249777674785
O         2.41248018649549    4.67279230841147   16.92336947607048
C         2.43815957415533    4.81325204881662   15.60533859646837
N         3.50335109839808    4.24571033422118   15.01996273560524
C         4.21543666614909    3.65417523411300   16.03782993401315
C         5.37374338949445    2.88540850732977   16.06695870182839
H         5.88795006629297    2.62206829069071   15.15776662037904
C         5.80908781165080    2.44591924889650   17.30056306170407
H         6.70095743583237    1.84218418664758   17.36046479052913
C         5.12169923960577    2.75346320445972   18.47711534453886
H         5.50232828300883    2.38624462644832   19.41677364733470
C         3.95994975610489    3.50327886362048   18.46692961569476
H         3.41259033401055    3.73354230379472   19.36520118695047
C         3.51853929743822    3.94266377012409   17.23195924138236
C         6.24426236345873    6.41799603497918   14.20903914075779
H         6.50144076076375    5.66593169136475   14.96384650488233
C         5.71083058614073    5.69841542919372   12.99212633909228
C         6.12988983480146    4.37543256584810   12.71185887856988
H         6.81279403463405    3.88611780487372   13.39394463046493
C         5.74295239679216    3.73183433358139   11.54214596052759
H         6.08909371745991    2.72662467486128   11.34125333472350
C         4.99712760652646    4.40622277154704   10.54867097322518
C         4.62163274365142    5.72528509958856   10.79836264566147
H         4.11249619945873    6.29305327037020   10.03143744138919
C         4.92919137991878    6.35204953222017   12.01892203764846
H         4.67177752274618    7.39481712921264   12.14788490756800
C         4.67064968579666    3.71926494218301    9.26447620532450
H         4.15051609922132    4.38433724242225    8.58038249759132
H         4.04391590086030    2.84751699200389    9.45400734722790
H         5.58209128583701    3.36650020489240    8.78412896605732
C         7.52628535036554    7.16188052882170   13.81522610675717
H         8.27078656333061    6.47112033950016   13.42712081536026
H         7.94222393272618    7.66434873869579   14.68379364298147
H         7.31703935846565    7.90772736045497   13.05198713435031
C         5.22697019415016    7.38404709025418   14.81875469424081
H         5.10135426203959    8.26900332144232   14.20008302364452
H         5.57321907767947    7.71104281885626   15.79534800798448
H         4.25477117812735    6.90278596840271   14.94285118642286

