25
CSD_code = LEPNEZ | q = 0 | S = 0 | Stoichiometry = C10H8CrO5S | MND = 9
Cr       -0.53101507093389    5.37318066877164    4.38393843222748
S        -1.58144937131380    6.23058507188841    1.31933501510293
O        -0.84512613973616    5.30922581157077    0.50109424647161
O        -2.82245808733767    5.81304518175754    1.90912991436977
C        -0.53431642312824    6.73525972432691    2.66481401256074
C         0.76797266693095    6.20569764097931    2.74300230434681
C         1.49556326181811    6.36229176135205    3.91754220458678
C         0.90907411819577    7.03175728889668    5.01702757930925
C        -0.36412715890828    7.59604555585412    4.91811644958366
C        -1.11272529482720    7.40846219500783    3.73903965634463
C        -2.16626602162192    4.99565323719495    5.09740098539294
O        -3.18696872991004    4.69511353491431    5.53254501829276
C        -0.96443370827037    3.87432056131343    3.42855068777898
O        -1.29647333772114    2.92535252693177    2.87961564483520
C         0.00882945389934    4.18975786055004    5.66753349059975
O         0.29246185788333    3.41098747922251    6.46996883598220
C        -1.88863953978406    7.73590539934400    0.34420046177168
H         1.18305682356591    5.72348175277890    1.86641201872561
H         2.51569044666994    6.00767885982323    3.98583450355189
H         1.49609338615786    7.18664152223186    5.91404897462881
H        -0.76879429746764    8.18389831363278    5.73219860407437
H        -2.10438722508795    7.83184170812242    3.63608957088353
H        -2.52491689091227    7.46649894137864   -0.48953384725987
H        -2.38465275653520    8.46124599683234    0.97585414184152
H        -0.93549196162518    8.10427140532359   -0.01305890600299

