47
CSD_code = LEPVAD | q = 0 | S = 0 | Stoichiometry = C18H24N2O2Pd | MND = 4
Pd       20.14151537153306    9.45462146289879    6.76054537026738
O        21.76726591997820    8.53424142369570    5.61757931607517
O        23.93405500487401    8.93908405435210    5.29163222002958
N        19.01115501680013    7.87380745569931    6.86852557713615
N        21.44970323744703   11.04882016676142    6.50638048985564
C        19.37562294804451    6.67724691344594    6.46337868496093
C        18.46914155621873    5.61315754140871    6.38719661996284
C        17.14414494801733    5.78977726170825    6.71345683894752
C        16.73102134086212    7.08452244771295    7.12873834420633
C        15.39999761879314    7.44772178031268    7.41923587865744
C        15.09602496562953    8.74128861011546    7.75228332386707
C        16.08559719606228    9.72727112372772    7.85496344093707
C        17.40674724634617    9.42035177140338    7.61710331651902
C        17.71699616954028    8.09812889621289    7.21422568383177
C        18.58449900614760   10.33846305615099    7.77573864403013
C        18.26190264628910   11.79012169534515    7.41478734099905
C        16.16730936880390    4.66382795296578    6.61828278888730
C        22.85007447688639    9.15915219152886    5.79542969946173
C        22.72351982526779   10.36772490876540    6.81725253642072
C        22.69432052240472    9.76906659721763    8.22972073860786
C        22.27569289972886   10.73517022150105    9.34788570862848
C        22.09078596418440    9.95156027640911   10.64637615508313
C        23.30119535772346   11.84948918560246    9.54043475458708
H        20.41468402764560    6.54955306881966    6.17567481818817
H        18.82543260888542    4.64968322436870    6.05615625242914
H        14.61866592790639    6.70732208519951    7.35667772550722
H        14.06956324100036    9.01190471785426    7.95342005132643
H        15.79320208744162   10.72661874356595    8.13687291512551
H        18.88013810776857   10.29395544809610    8.84353354781749
H        19.12623666812750   12.43322799972460    7.58110861795662
H        17.96101314832608   11.86612522157421    6.36887643432243
H        17.44961463175876   12.18322950275777    8.02980155256353
H        15.67853062975934    4.50090507297751    7.57781522463790
H        15.39662273145741    4.89284012761247    5.88315213985070
H        16.66855132494859    3.74662213182616    6.32074598362527
H        21.38059041957017   11.93355988920003    7.00974761029200
H        21.42422324952197   11.25782538437885    5.50362258544456
H        23.58347891802213   11.03972370287247    6.69374490955974
H        23.69004351755484    9.37419859195005    8.44442012358043
H        21.97937759683629    8.91716717925913    8.22679331015428
H        21.30167799828655   11.17545947100745    9.09013802229130
H        21.78787658729508   10.61368266637211   11.45438941989415
H        21.32397698664211    9.18858454834641   10.52077989540060
H        23.01997308977597    9.46406338629695   10.93326437649299
H        22.99895749559212   12.50953737124173   10.35097111694981
H        24.27187013705967   11.42625056122288    9.78913737130300
H        23.41411026116324   12.44904290857213    8.64010252329538

