53
CSD_code = LEPVUA | q = 0 | S = 0 | Stoichiometry = C18H26O8Zn | MND = 6
Zn        4.95775148345150    6.03658987540128    0.00255198258524
O         3.27706431574561    5.50847192291004    0.77649829722510
O         3.77887390773450    3.83732352911059    2.15890583221153
O         5.62024789917288    7.13704427871857    1.77620613810548
H         6.53668098759072    6.83463327611138    1.75734433647855
O         5.93379217633468    4.41010813453905    0.90899373113235
H         5.16452199241465    4.03618204561671    1.45827804384535
C         2.97738272294498    4.63214272901845    1.64300871330498
C         1.53629122134505    4.58158007906865    2.05617923519270
C         0.60860588610686    5.44823679370168    1.48845072612933
H         0.94354106005001    6.15375053530369    0.74306061200509
C        -0.71624343274827    5.39706395266177    1.87885098276418
H        -1.43650128363170    6.07084074499704    1.43734361559275
C        -1.12207684546089    4.48138316881212    2.83691329332823
H        -2.15826837665201    4.44272809904403    3.14083383250430
C        -0.20130733740476    3.61549763301765    3.40487074165751
H        -0.52005516705023    2.90208657507034    4.15092086408665
C         1.12457822421258    3.66440932426295    3.01668744118242
H         1.85873159311757    2.99908373816041    3.44552173303842
C         5.09859414876461    6.91136719251638    3.07672031987210
H         5.11524454037159    5.85258348090791    3.34218050335610
H         4.06579556694278    7.25358694473635    3.06824938790622
H         5.66530387394159    7.48716371940522    3.81411482020561
C         6.53125813112107    3.35364760303417    0.18497970920880
H         7.00520008128429    2.65082911490582    0.87762198106291
H         7.28840397563503    3.78565947484679   -0.46761640718426
H         5.80026578038504    2.82013285679217   -0.42691880340737
O         6.63742232033185    6.56259564963282   -0.77348795412645
O         6.13404382503755    8.23496433560616   -2.15395068891667
O         4.29249106012306    4.93619435135955   -1.77040473999873
H         3.37470621666429    5.23401971110312   -1.74480951347692
O         3.98076202090853    7.66456135162062   -0.90064298532880
H         4.74958692919662    8.03739505360985   -1.45142218434509
C         6.93569371322814    7.43827748188223   -1.64113196543154
C         8.37546757407791    7.48655323038055   -2.05919602341438
C         9.30481353965273    6.62170187669859   -1.49144252662912
H         8.97229977781395    5.91943331532926   -0.74192147672553
C        10.62831070414056    6.67086986333853   -1.88669038728647
H        11.34990876672781    5.99870252101376   -1.44491401573722
C        11.03109424860045    7.58258282333431   -2.84981196521232
H        12.06620957906332    7.61968664883541   -3.15755558153716
C        10.10862590227263    8.44652562307867   -3.41796023118498
H        10.42489919402868    9.15671176944762   -4.16813249066733
C         8.78414981069997    8.39978307172390   -3.02474542843326
H         8.04871389331455    9.06354719369258   -3.45378776883965
C         4.80431532518809    5.16677312631349   -3.07403632536346
H         4.78267439162597    6.22619671917556   -3.33659139570539
H         5.83815892533997    4.82755084499380   -3.07369222749717
H         4.23407802238136    4.59117157494408   -3.80886136906363
C         3.38677441251295    8.72163416418545   -0.17474513838439
H         2.91294235428155    9.42597161007935   -0.86593149197123
H         2.62979431281776    8.29072046472616    0.47880328895714
H         4.11988605424932    9.25324880122381    0.43631092292753

