41
CSD_code = LEPXIQ | q = 0 | S = 0 | Stoichiometry = C14H22I2N2Zn | MND = 4
I         7.12351944445120    6.70833002805924   -2.86674980379699
I         7.12316218972235    6.74241997191288    1.79451515562436
Zn        7.12323032314522    7.71230738008133   -0.57071925009888
N         4.28466333140441    8.68966521887476    0.12129723396608
C         5.33760328952138    8.84363678049371   -0.32886467812213
C         1.87762538423965    8.49817158967326    2.95602283486944
H         1.04588011677548    9.04484142690831    2.50456230095068
H         1.95544705070657    8.80774994458071    3.99897350375537
C         1.53055579847735    6.54966002500960    1.41803100741224
H         1.36326332233068    5.47313506887877    1.36703387863533
H         0.68914455065785    7.04366842317023    0.92583068475797
C         3.08321410264915    8.39960523288713    0.76845464090880
H         2.28557005186835    8.94832636606533    0.25194181620434
C         1.60931143387301    6.99841311768025    2.87420670256310
H         0.67550540197893    6.76098606054737    3.38567867172633
H         2.41496275043425    6.45919480493670    3.37638315228733
C         3.17282726763375    8.84949845050936    2.23145809915205
H         3.35697691497347    9.92519444051540    2.27755479564032
H         4.01211140367368    8.33849224377563    2.70899039185427
C         2.82297391671463    6.88998863896958    0.68461258366427
H         3.65713958086663    6.36051179009149    1.15078343309087
H         2.76201976503756    6.58170437063438   -0.36155934335655
N         9.96161840209356    8.68995230174201    0.12139263244819
C         8.90869458754540    8.84390051456578   -0.32879645298507
C        12.36885310679765    8.49829297515407    2.95598001343558
H        13.20065021260429    9.04478051787958    2.50439660224038
H        12.29117076809999    8.80798607304062    3.99891147043448
C        12.71554130328391    6.54956599553066    1.41808243188098
H        12.88267035998349    5.47300656004035    1.36713127036889
H        13.55700703740148    7.04341773507162    0.92582047318662
C        11.16310006591321    8.39976563301226    0.76847520680556
H        11.96077627949072    8.94835794271165    0.25187191875178
C        12.63688686238046    6.99847780208329    2.87421598367179
H        13.57067640800925    6.76094349851025    3.38565560678031
H        11.83118553230933    6.45942773813922    3.37648623179889
C        11.07366181635938    8.84972840329594    2.23146069440120
H        10.88970047659226    9.92544776784131    2.27748790628787
H        10.23431940673467    8.33889012789623    2.70906188982613
C        11.42314066020863    6.89010726006904    0.68473034237678
H        10.58890250795606    6.36076159432458    1.15093003645009
H        11.48403681509827    6.58178818483357   -0.36143206984639

