41
CSD_code = LEPXEJ | q = 0 | S = 0 | Stoichiometry = C9H27BrCuP3 | MND = 4
P         2.76687863390660   -0.01475586140937    2.73427783359357
Br        3.45241312079654    3.45243803596901    3.45240457548233
Cu        2.10407005985657    2.10413000265415    2.10407091510963
C         2.30360100454749   -1.74329431555438    2.28092506126802
C         4.58663645901866   -0.09822164790106    2.52527959647930
C         2.67203319131900   -0.11773289666151    4.56256375753700
H         1.24858394175611   -1.89941067882281    2.50172161143187
H         2.45756359715402   -1.88473784340794    1.21202973593478
H         2.90149853580913   -2.46757865081379    2.83319113239231
H         4.82827240481931   -0.22194541769880    1.47033253396609
H         5.01216902454326    0.84082743614968    2.87846830236548
H         5.00597100290684   -0.92641273734028    3.09730600799797
H         1.63546880442039   -0.25254377084361    4.86907893111366
H         3.27579360858371   -0.94517631939055    4.93655171802029
H         3.04374986330185    0.82019298071412    4.97464346164076
P         2.73424451383088    2.76690673991219   -0.01488676657310
P        -0.01486970437759    2.73428800957017    2.76686106066274
C         2.28084546514985    2.30360470640186   -1.74340410572414
C         2.52516243243049    4.58667631985061   -0.09819787255108
C         4.56253453677764    2.67198972193360   -0.11771572911137
C        -1.74338353907441    2.28090346912471    2.30353569026233
C        -0.09820642906306    2.52522521558774    4.58663122413268
C        -0.11768532189282    4.56257737779767    2.67193109392125
H         2.50169069432533    1.24860749142121   -1.89958170208881
H         1.21195363143041    2.45755714459305   -1.88489142352632
H         2.83314699746136    2.90158543749453   -2.46758622239252
H         1.47022418513736    4.82831014775347   -0.22200237247410
H         2.87829077732764    5.01217992356866    0.84088525737249
H         3.09725299751504    5.00600411954221   -0.92633480264078
H         4.86904537045142    1.63543258348541   -0.25259760701794
H         4.93650830949686    3.27580141635853   -0.94511766329973
H         4.97460032824112    3.04365509769788    0.82023236523241
H        -1.89953915950241    2.50173631001457    1.24853167324931
H        -1.88487902239260    1.21201432312443    2.45749942622650
H        -2.46757176426996    2.83321912473940    2.90149698203255
H        -0.22201931876839    1.47029003220700    4.82827460180286
H         0.84087473201014    2.87835171534070    5.01214079269975
H        -0.92634368304259    3.09732569007763    5.00594533952097
H        -0.25249844103480    4.86908446910386    1.63536291558449
H        -0.94512536518036    4.93655652361006    3.27568959800825
H         0.82024352427538    4.97463857404641    3.04365307235754

