91
CSD_code = LEPYOW | q = 0 | S = 0 | Stoichiometry = C45H40IrN5 | MND = 6
Ir        5.80081345261880    8.37775807411887   13.45613856268033
N         5.02903343934783   10.19491904764972   13.04485016587723
N         6.58993465513742    6.59764250124157   13.97771000863366
N         6.47901029216674    8.00930120502248   11.40858872729931
N         4.39501909938950    7.52608944120196   12.01008724674900
N         5.03020364861200    7.07182629006770    9.74058271628187
C         4.72658496936810    8.62938981116964   15.15575726328441
C         7.44061563495093    9.06061961728143   14.43127074581298
C         4.54413069806593    7.83669661832572   16.27631646542631
H         5.10989486467133    6.92253336522819   16.39703663353588
C         3.63723772846621    8.18924473736513   17.28069485640924
H         3.52780985483948    7.53878156838045   18.13786313494636
C         2.88299351121716    9.33760379539895   17.20481531872481
H         2.18505010927824    9.59274407353099   17.98923773314662
C         3.02427034182798   10.18429639163664   16.09773478521371
C         3.94559075105109    9.80904907138787   15.09913564369643
C         4.12577133070640   10.63410539361480   13.95779825050077
C         3.39767425068302   11.83134261174836   13.80713588844246
C         2.46748779063409   12.18136780851574   14.82909017726887
H         1.90543829525600   13.09675483958351   14.71115240485699
C         2.29161709464413   11.39436135555919   15.92004213754465
H         1.58265183775461   11.67726201440793   16.68565941618061
C         3.63945706282944   12.59720756368188   12.65812445982997
H         3.09901554594988   13.51844903464959   12.49657660127949
C         4.57920958975679   12.15284723307549   11.75394958163098
H         4.80336448528652   12.71895928044660   10.86307921604451
C         5.25231649144479   10.95376988876476   11.98321241282612
H         5.99329849928665   10.60156739492292   11.28190988249334
C         7.91851379661366   10.33517274356207   14.68462894555392
H         7.32645177486857   11.20243962897170   14.42453978416965
C         9.16590481544725   10.54213073715038   15.28205971407717
H         9.49864558795276   11.55584714392185   15.45947731021474
C         9.97733405792421    9.49245247509306   15.64692248813400
H        10.93918655452340    9.67144406825540   16.10555494562687
C         9.54867715464440    8.17793293625748   15.42149843786889
C         8.28806541503306    7.99433364842369   14.81825037839793
C         7.80903505254164    6.68142982670015   14.56823331268096
C         8.57292782807894    5.55140889248575   14.92262602671491
C         9.84688290932144    5.76779835193420   15.52455591775460
H        10.43547908412510    4.90154560877034   15.79083832216386
C        10.30983352425955    7.02102559574148   15.76043909618721
H        11.27837399933895    7.16518781214433   16.21867500227285
C         8.02453848691439    4.28877080586562   14.65737361667675
H         8.57680131064703    3.39431262973907   14.90597265273229
C         6.77331229178678    4.21924355396042   14.08491573678204
H         6.31041472006439    3.26707560765030   13.87644439790670
C         6.08968019056032    5.39078156595639   13.76311073827542
H         5.10769827379367    5.34436035149093   13.31767747178960
C         5.30456305165340    7.54192123116171   11.06882902684100
C         4.94115881537583    8.00872357976322    8.71923326765305
C         5.34054482422151    7.70648217447349    7.41553174755810
H         5.71231922461499    6.71788899757832    7.18769647609697
C         4.82652473838635    9.94835471668303    6.71793920556020
H         4.78241822972319   10.69762981039894    5.94205498647745
C         4.43735716731237   10.25621569578450    8.01064092542706
H         4.08174371579168   11.24886778893286    8.24816605519652
C         4.48786760134716    9.29774529001965    9.00347400552300
H         4.17133550567249    9.53637936099754   10.00810178311687
C         5.27552005216789    8.66927891606226    6.42894476201051
H         5.58929694089414    8.42179036202412    5.42509418052734
C         4.86494219406183    5.70551430852060    9.55345581723285
C         5.35799400510033    3.44894347309763   10.24076906653781
H         5.89569399407651    2.76990060516883   10.88731509770191
C         3.81889498576745    3.83880539552386    8.45143433637020
H         3.13864150546666    3.46293218100276    7.70084018698249
C         5.54735629684703    4.80985486904786   10.37810560940700
H         6.22978865050634    5.19275622861101   11.12244194855259
C         4.49654639032960    2.95449909293662    9.27599883517199
H         4.35243620099703    1.89016785598002    9.16744393491045
C         3.99181269324729    5.20127952586153    8.58714862691864
H         3.44315635999163    5.88507535697630    7.95561271745826
C         3.01217276374912    7.21151337093493   11.75978458924977
H         2.83041550552630    7.12706013498974   10.67586486267537
C         2.12471277729531    8.33138897977271   12.31167305121713
H         2.37347221935892    9.28387899140100   11.84675135707888
H         2.27138027325347    8.42202272831500   13.38536692141906
H         1.07761289057828    8.11386139903224   12.11321846009188
C         2.62673320389461    5.88106687509523   12.41551948124507
H         2.80798409271300    5.93548952885396   13.48733305499956
H         3.20549025660056    5.06280742091983   11.98915894160172
H         1.57171804044872    5.67522835951439   12.24925208908549
C         8.79377904113035    7.28377630199571   11.29986006743429
H         8.52234138365861    6.28317905317543   11.63206859109489
H         9.05010347128016    7.88002387367106   12.17235642021000
H         9.66497563491376    7.20791831382980   10.65302265785610
C         7.63125607802399    7.93851471894329   10.54761868778724
H         7.40568904855791    7.32795528352230    9.65802479735014
C         8.04730462576589    9.33644278919791   10.07695931687324
H         8.26369515282084    9.96336401181283   10.93994528448562
H         7.25472298949670    9.79229166816786    9.48507566204714
H         8.94007525370366    9.27172536819709    9.45902837437554

