19
CSD_code = LEPYOV | q = 0 | S = 0 | Stoichiometry = C4H8N2NiO4 | MND = 4
Ni        1.84340132491790    1.30931267661844    4.12707921535392
N         0.27212284081073    2.47007847123808    4.13872133522603
H         0.48196289745814    3.15726861625878    4.87034161514834
H         0.11946738110962    2.99294289403885    3.27409918050487
O        -1.15984134912754   -0.24507981516957    5.98048559376695
O         0.83263901132135    0.16094089260639    5.10284519765064
C        -0.41567989186054    0.41383443711336    5.29824069016724
C        -0.91296016825154    1.67398687507330    4.52562344714944
H        -1.42825299704115    1.31758003989079    3.63110322526569
H        -1.61898311705381    2.24478661934966    5.13470635009919
N         3.41466143617935    0.14850221629131    4.11531443865244
H         3.20483262977574   -0.53866365842803    3.38366195586592
H         3.56731300825772   -0.37437718873019    4.97992662901561
O         4.84658837595379    2.86365309981644    2.27353308403077
O         2.85411560664480    2.45761534233059    3.15116292384696
C         4.10246666165910    2.20480190016995    2.95585833923356
C         4.59974304225548    0.94463511559464    3.72845678532812
H         5.11502121290134    1.30101147924374    4.62298511946014
H         5.30578209408952    0.37386998669342    3.11935487423415

