34
CSD_code = LEPZAK | q = -1 | S = 0 | Stoichiometry = C14H12Cl3N2O2Ru(1-) | MND = 6
Ru        2.12414280101626    9.03930779618512    2.98306755727159
Cl        3.28259516299405    8.06917784860558    1.14354348624287
Cl        1.20320079604874    9.85158846837340    5.02971462206149
Cl        2.47112282338561   11.22194278117828    2.17205855797064
O        -0.34304136615264    9.17965381358279    1.62743711397433
O         3.87749885768155    9.28489442947000    3.89328759593782
N         0.65793467109683    9.04180934926821    2.19818395483067
N         2.13502920861476    7.13875328135445    3.81988313029600
C         4.25796803558459    8.81736080153832    5.01601024897667
C         5.28532014985841    9.48325178816095    5.73781497073507
H         5.67444046969642   10.39403474685261    5.30728870313225
C         5.73661855593146    9.00861167793273    6.93721395100008
H         6.50553667700591    9.54863630786553    7.47361402645162
C         5.21700837553796    7.82926543806151    7.48444244314202
H         5.58334678507518    7.46668259583263    8.43407086926278
C         4.24739975789050    7.14204210536963    6.80338828137092
H         3.84194162214305    6.22491516486503    7.21228093780719
C         3.74147964824452    7.60509511737161    5.57722212740330
C         2.79749474746201    6.80943734786474    4.87190504673748
H         2.66496995676637    5.79102771189300    5.25639961648952
C         1.35020019512379    6.13830370179907    3.14422520702610
H         1.47699839127667    5.15984302279785    3.63759693852077
H         1.73429143196647    6.06151366139042    2.11815375969198
C        -0.11970149191201    6.48339665015582    3.10553868902744
C        -0.88564255799789    6.13161772708059    2.00046775420528
H        -0.41503057312742    5.63763849579733    1.16225420426080
C        -2.23476135220241    6.43188938277296    1.96055878805288
H        -2.81880884663585    6.16424757318654    1.09159930489115
C        -2.83081430314098    7.09164159014176    3.02207815440751
H        -3.88158149045586    7.34119969998194    2.98243879375862
C        -2.07454211669426    7.44060524288829    4.12696798845023
H        -2.52832605180577    7.96636198654175    4.95368145743166
C        -0.72620299136733    7.13105810487557    4.17621886893502
H        -0.14168597890884    7.42279458896342    5.03669285024597

