49
CSD_code = LEPZOY | q = -1 | S = 0 | Stoichiometry = C19H22Cl3N2O2Ru(1-) | MND = 6
Ru        1.88946008731402    4.13030251974481   11.36475475340819
Cl        0.74435461461919    5.83251008988866   10.13784187835210
Cl        3.17457575717424    3.63918114565169    9.46343396643305
Cl        2.79347042708820    2.20398084699641   12.40632449892555
O         3.93276284115589    5.77417285770121   12.40776461814042
O         0.50848597219645    2.93782732370440   10.56708167002266
N         3.08400944279474    5.11036847934317   11.97433224437740
N         0.51977879803855    4.42752628473311   12.92788148484405
C        -0.76101985383772    3.01569301067917   10.64459021217090
C        -1.55756307143317    2.37797289540330    9.65467403539769
H        -1.03334290015971    1.87475950105763    8.85582949520782
C        -2.92238972747826    2.42587107654678    9.69623813075697
H        -3.50059472048801    1.94653976526651    8.91764957966435
C        -3.58644913715240    3.08819440142059   10.73626770310734
H        -4.66623300739905    3.11820559452504   10.75581135378122
C        -2.85454061953744    3.68979184826047   11.72472176983343
H        -3.35462027886975    4.19927320047558   12.53890060376652
C        -1.44866274649187    3.67815398534212   11.71302825655805
C        -0.75194602515015    4.24963876807669   12.81105391796976
H        -1.37535820529419    4.53743706336189   13.66402898267879
C         1.02417453223687    4.84752735457422   14.18293346624315
C         1.16471903917764    3.90470310324977   15.21288738890941
C         1.68974973431677    4.32923090362094   16.42598697310557
H         1.80619702149830    3.61939224387238   17.23048003106788
C         2.05729594055675    5.64428685118697   16.62742317486765
H         2.47085040355101    5.95233711630535   17.57767679572900
C         1.87076422349856    6.57105661369279   15.62048026730329
H         2.12720928295428    7.60385953946407   15.79650806552882
C         1.34626495838851    6.19750010121495   14.39154168290373
C         0.71208268334782    2.47048137329030   15.05519808483176
H         0.53697410912760    2.26498331118038   13.99560827160359
C         1.77055479891335    1.47434740512595   15.52670269734871
H         2.68598390328422    1.63222228884824   14.96424240961395
H         1.42495346288418    0.46138003020007   15.33185874348109
H         1.97267925030258    1.56842173429608   16.59132259149048
C        -0.59991971659512    2.26058079863414   15.81937788336856
H        -0.94519147646209    1.23654373440759   15.69246114475052
H        -1.37718800827144    2.93051631288846   15.45640904915682
H        -0.45681632383626    2.44918713751353   16.88226216984573
C         1.03419833995053    7.24457813196708   13.34749223103130
H         0.96500062818800    6.76805967981235   12.36473999804721
C        -0.33535521619424    7.85955772832013   13.65747789661972
H        -1.11154328525864    7.09800615395081   13.63538380276081
H        -0.57733088545947    8.61274817180325   12.91181507103498
H        -0.33334361114004    8.32477155330287   14.64311189328202
C         2.09532042444371    8.34140470763811   13.25590266018541
H         2.05711945775771    9.01213814107162   14.11266401258896
H         1.92418290439551    8.92887430432155   12.35693494354144
H         3.08933577734456    7.90520281607726   13.19480744435828

