36
CSD_code = LEPZIQ | q = 0 | S = 0 | Stoichiometry = C14H10N2NiO9 | MND = 6
Ni        5.90668158763750    2.88684163551387    2.00271188434716
N         5.91210260847081    5.06570857739593    2.07577994195098
N         5.37375691440024    1.01888512513433    1.07015617461341
O         8.70668861015268    5.08131393218552    4.19498771569249
O         7.55955133672271    3.38617321637683    3.30307856205065
O         3.16175801333809    5.71103299894227   -0.03608172174279
O         3.95145899173294    3.79831847857536    0.79236604086117
O         6.66561342720688    2.79354417119339   -1.70411523395528
O         6.79903337491255    3.18174397475859    0.47690546337161
O         4.47111176349658   -1.85883263715443    2.94966951398008
O         4.67309998075586    0.19759564786537    3.74943539657484
O         4.94513843387313    2.83832448530043    3.69728705837017
H         4.72644096772123    1.89870135509678    3.86372418009637
C         7.86169758438556    4.59846067810342    3.46686835570364
C         6.97749782923913    5.59063975129273    2.64029403826222
C         7.28616535823681    6.94157649153620    2.49064495573164
H         8.16407063874995    7.33179499730015    2.98129206418799
C         6.45777557890638    7.72362176255367    1.70443203395751
H         6.67361660774540    8.77139689881276    1.55556624475225
C         5.35063851426306    7.14955810817403    1.08869978134550
H         4.69372168106428    7.72131045875145    0.45338510082856
C         5.11570781189200    5.79818837648337    1.30389465541258
C         4.02969496267082    5.00373153992813    0.67556669688898
C         6.41382679984576    2.52898845926454   -0.54386084303776
C         5.60045630913663    1.27357732315715   -0.22140251149262
C         5.20925589783389    0.42635335420175   -1.25365604300132
H         5.43251363239518    0.73174366493926   -2.26452381532400
C         4.56767711624973   -0.75591722490641   -0.94385291171204
H         4.23554220995340   -1.43553576036014   -1.71386350033292
C         4.38619919765003   -1.06174740965318    0.39558655748977
H         3.92832079341534   -1.98987307032140    0.69706973897997
C         4.80231681876313   -0.15647695354160    1.36995106958548
C         4.64591760995337   -0.54917033132523    2.79919578327840
H         2.50188980654231    5.12996533465326   -0.44870567028657
H         4.39604728643594   -2.08548821472401    3.89151143293800
H         5.64861394424586    3.05895080447793    4.32840180964112

