31
CSD_code = LEQCOC | q = 0 | S = 0 | Stoichiometry = C9H15Cl2N3OPd | MND = 4
Pd        3.08916753161891    4.23485401731316    2.04645986383999
Cl        4.32461474657818    5.62160592272177    3.30712942399499
Cl        1.14707871833624    4.84783283533068    2.94215101956400
N         2.21561045385995    2.65374704491115    1.06842571362788
C         1.89601325686568    1.52241384988318    1.67769966525840
C         1.80843121679962    1.44812397206203    3.15970766920635
H         2.50036992059278    2.17765088189393    3.61171310255016
H         2.04854039688552    0.44726889847217    3.50880095955405
H         0.80019907737280    1.70463916144802    3.48541029912537
C         1.70597958393852    0.52808660421371    0.70812974226927
H         1.43327025370006   -0.49295151360758    0.87657007387647
C         1.94982358638460    1.13050051075497   -0.50977809728423
C         1.90422399417860    0.55592532971252   -1.87838194981990
H         1.14781172739597    1.05227192370201   -2.48598725417920
H         1.65439165423668   -0.49899325544689   -1.81467108408299
H         2.86788412352384    0.65377798405038   -2.37778175629562
N         2.26664998230951    2.41945417787141   -0.24707774041857
C         2.58113504507148    3.48763711815869   -1.16990851864759
H         2.48253457159240    3.06693459998919   -2.17453672546244
C         1.56971087700205    4.62101918881270   -0.98284513721460
H         0.55534091621036    4.25048725754176   -1.11422900944276
H         1.75150521701491    5.40958793838365   -1.70784563628120
H         1.65679764316601    5.03882870412884    0.03350433885761
C         4.03486384716586    4.02541809590329   -0.97817297141768
H         3.96003136186941    5.06172041737519   -0.61566010709471
H         4.54161388048276    4.03156804031518   -1.94272196339157
C         4.88996829138007    3.29625211552668    0.01411565414448
H         5.65356961793988    2.59577546507919   -0.31122034117807
N         4.74672333365068    3.59995444435837    1.24076584206247
H         5.51049402784219    3.70778181858852    2.93881311799880
O         5.58545114503521    3.06592645055089    2.18292180627850

