77
CSD_code = LEQJOH | q = 0 | S = 0 | Stoichiometry = C35H31BN6O3Zn | MND = 5
B         7.50127122485918   20.06611250358301   13.67533531086814
C         6.46071247513005   18.15060979780006   15.99958536452947
H         7.52439810487370   17.92441133104593   15.96156324874681
H         5.95327464617757   17.37638469505321   16.56852821197990
H         6.33637104468549   19.10193429148040   16.51444880377454
C         5.88797458958397   18.22105642233005   14.62974909606877
C         4.80463246833524   17.53179540980845   14.11215471894875
H         4.19711283940818   16.80746066247263   14.61564074474661
C         4.69017115426601   17.96612938425868   12.78746995088549
C         3.71648011268987   17.63332933187124   11.75586310931675
C         4.11402660774977   17.53947406348160   10.42382677346131
H         5.15990627208605   17.63711779659577   10.16949225847933
C         3.17542552556008   17.32354904344382    9.43195314644340
H         3.49055740700037   17.26473210331755    8.40045002668836
C         1.83505257787072   17.19367968199694    9.75675594676690
H         1.10177988266146   17.03990448632450    8.97829920462306
C         1.43750559587934   17.26061716595768   11.08204404732454
H         0.39300721928706   17.15598974554415   11.33818416789642
C         2.37138501180961   17.47537543612643   12.07817699275877
H         2.05939930218808   17.55369704286968   13.10906699778362
C         7.44938764058607   22.37574563604855   15.85110104549339
H         7.10099179858630   21.53635311197589   16.45012605132116
H         7.26200606512807   23.29700496009767   16.39593776865652
H         8.52172421189031   22.26248234278838   15.70448757218889
C         6.74384785804697   22.41817564674046   14.54335564827962
C         5.90812005190453   23.40566702149083   14.05217426761809
H         5.63352027043421   24.32103209450657   14.53574542272385
C         5.52180746265680   22.96404628259172   12.78181240892965
C         4.61499637443095   23.55596591553779   11.80709610933758
C         4.86502495937943   23.41778544743702   10.44380148623587
H         5.77679624749849   22.93950883266873   10.11705082047175
C         3.95674885426180   23.88965567128976    9.51524201177511
H         4.15248582845210   23.76224338192517    8.46028013269074
C         2.79488182925252   24.51635825872787    9.93522938928582
H         2.07985803544164   24.87450014614037    9.20879000562253
C         2.55354465389865   24.68321886418403   11.28888135093980
H         1.65006710050782   25.17557358577154   11.61871981123136
C         3.45695159664163   24.20821221597291   12.22123630760946
H         3.25496120896014   24.31431911702844   13.27678605746943
C        10.46846726301362   19.05438766507536   13.42440418372550
H        10.61088154452773   19.92075088675685   14.06744782572951
H        11.43635593765034   18.72600416239236   13.05556084828935
H        10.03002188756222   18.25744411069169   14.02237411835798
C         9.58774669098816   19.39185621297048   12.27533188605734
C         9.86953615958678   19.29868797942791   10.92549367623451
H        10.78672468069878   18.98020167643232   10.47350792629184
C         8.71108427645550   19.73953831685828   10.27463500030271
C         8.47263543808355   19.87526793494735    8.84225277786873
C         7.83777754810787   21.00622298030818    8.33875891654004
H         7.54064394415744   21.78844187269248    9.01909600846711
C         7.60848305235507   21.13018982854585    6.98209000987362
H         7.11072565411077   22.00945787516920    6.59929594122413
C         8.01611331624676   20.13206327470044    6.11270708224568
H         7.83385824231429   20.22815661589226    5.05186241086231
C         8.66304524241722   19.01069984168057    6.60499193611891
H         8.98555292624858   18.23217741711537    5.92825997807607
C         8.89325549156865   18.88224144090867    7.96198936272275
H         9.38597400458387   18.00167434133046    8.34871892497756
C         3.99648463408568   20.49212341248953    9.20213468727707
C         3.38297036974590   20.52549193729668    7.96582674833427
H         3.97237537904818   20.39592181516906    7.07242306496335
C         1.99087327284676   20.72296648300368    7.89344044788051
H         1.49403782928207   20.74867625180564    6.93765834927798
C         1.27267793237729   20.87931838360262    9.02838736753245
H         0.20770591413242   21.03324957193936    9.07877177221526
C         3.15432473614143   20.67607262639530   10.38264645981751
H         8.16707007664598   19.96273224277227   14.64279667747990
N         6.37089255606490   19.01592011147922   13.65857844805098
N         5.65156028548381   18.85360269830273   12.54278004421942
N         6.83231577842448   21.45198704436703   13.61048783289097
N         6.10023216306779   21.78978720411384   12.54321524152221
N         8.32970326601411   19.85456833354991   12.40158253618188
N         7.79793174793100   20.06451662714425   11.18655349358416
O         5.25258385374566   20.31595134579000    9.41033323259716
O         3.64569571257899   20.66440305271178   11.51708044631985
O         1.84238615432999   20.85813282003766   10.25431781291595
Zn        5.77732892729377   20.33670467584927   11.24126473299426

