38
CSD_code = LEQLIF | q = 0 | S = 0 | Stoichiometry = C18H13MnN2O4 | MND = 8
Mn        0.49591805807908   -0.41459030552187    4.09702878875604
O        -1.19618969173411    1.52554135008772    5.50198608908630
O        -0.43531279735577    0.29744883932639    1.40998902246702
O        -1.35507205435114   -2.65958026178221    4.45103792242877
O         3.69061967840248    1.77051869449994    1.29943124961860
N         4.45158874954240   -0.30708836420443    1.81981775636846
N         6.73596168882575   -0.76655886507672    2.06249546289949
C         2.51301786276712   -0.65730752233692    3.25672322964335
C         2.43350185289369    0.54400875621227    4.01568125383943
H         2.73597355909174    1.51908606535932    3.65941278720486
C         2.14055949545653    0.20113675695182    5.35648449249295
H         2.16537164789370    0.87797111361828    6.20021655279253
C         1.98645462962633   -1.20274967877839    5.42833739283196
H         1.89892396902938   -1.78446679420949    6.33646473293300
C         2.21855981975430   -1.73293682692550    4.13115460251771
H         2.30281981264884   -2.78550243976173    3.89055552559099
C        -0.56345113887869    0.75579261588387    4.93369857878000
C        -0.11418641635345    0.02269080442911    2.47569851237467
C        -0.65946382032359   -1.75836108874699    4.30136060596641
C         3.06085089280622   -0.75299492257253    1.85789682934806
H         2.98378322066116   -1.77170037049019    1.47373697058711
H         2.51829471165368   -0.07471236132026    1.18897137346546
C         4.64585660281301    1.04421526450124    1.49504038951152
C         6.03807641661509    1.45655518116319    1.42788378436419
C         6.37698924938979    2.76683354954755    1.08206628099288
H         5.58122415966160    3.46217200151207    0.86082796004575
C         7.70026332403126    3.13852783632130    1.02708678513386
H         7.96787468031673    4.14893829732542    0.75740827562720
C         8.70140279458604    2.21145413957243    1.31936257891061
H         9.73677793804412    2.51589808097296    1.27341763899478
C         8.38492162809301    0.91778512176301    1.66373259401530
H         9.14637409630225    0.18905544714736    1.89164988840975
C         7.04425931941806    0.52158465819817    1.72089466654086
C         5.50839485126232   -1.13633735565548    2.09917475461262
C         5.23831684041900   -2.55681214024353    2.47601800955091
H         6.19216674824923   -3.03436858914326    2.67911509412992
H         4.74270457952554   -3.09143512629255    1.66683819542148
H         4.61607304113775   -2.60871156133069    3.36700337174508

