39
CSD_code = LEQNED | q = 0 | S = 0 | Stoichiometry = C11H18B9Ir | MND = 10
C         0.62619322832141    1.42725083759170    2.79995517466774
H         0.53169095024344    1.05013067015377    1.78268706854404
C         0.19649188930794    0.44718830738437    3.96631572740558
H        -0.16379353505651   -0.53738722765312    3.67102977972530
Ir        2.32626993897527    0.38268867974263    3.62587294639663
B         1.84555156054707    2.49411994334170    3.26429164998109
H         2.60921840039436    2.89860696459695    2.46491124213162
B         0.15489511574377    3.03554163262864    3.12038316922806
H        -0.12140738462422    3.72725864140796    2.21143111313732
B        -0.90196502086209    1.70882994217486    3.54652957758672
H        -1.85434292344021    1.39734441407689    2.93264295539239
B         1.05992229282246    0.70732522409840    5.39108372211182
H         1.24979787490675   -0.18560429830955    6.13437125735403
B         2.16561126441534    2.08497051982205    5.00078815551652
H         3.20316585561209    2.25624883270290    5.52774738906629
B         1.12359684220988    3.46242781804659    4.54643771062005
H         1.48165607065160    4.56167644110626    4.75997655855268
B        -0.58715677054316    2.98263672194053    4.73457793719616
H        -1.42324031190022    3.74045891833372    5.06211591153877
B        -0.62025745259677    1.27154569491840    5.21680941281957
H        -1.45453046254345    0.69685862434451    5.81249986206827
B         0.63039647992766    2.34605463889405    5.87545404865724
H         0.64918623432952    2.67706793529540    7.00337469897937
C         2.99354016620177   -1.87470807050595    2.99428393134491
C         3.60351086373675   -1.36106390203069    4.18442353127426
H         3.63132736668955   -1.86816840931215    5.13490214726424
C         4.40584923031251   -0.24835318664444    3.81755854577699
H         5.13009683105322    0.23875295724899    4.45110858976082
C         4.19281734730150    0.02990016543139    2.44220023108214
H         4.73691043137070    0.75266271586909    1.85660815047848
C         3.36110082924097   -1.00588174004886    1.90680177870239
C         2.88238982653532   -1.26389579458789    0.61689055466762
H         3.15790996676394   -0.61715234116461   -0.20447805277079
C         2.06734505875197   -2.35308355433748    0.41726110605768
H         1.69597338398245   -2.57120555988569   -0.57354599643168
C         1.70958274831054   -3.20008402848592    1.47687376121599
H         1.07191633207442   -4.04835441036380    1.27442229512199
C         2.15993447982246   -2.97384845966923    2.75612851536697
H         1.88364500101019   -3.63205625815243    3.56797384241120

