60
CSD_code = LEQPUS | q = 0 | S = 0 | Stoichiometry = C22H36SiTi | MND = 12
Ti        1.24992579474028    3.74148828378874    6.33904745107852
Si        4.29976187048849    3.74150278622793    7.53755931572248
C        -0.17289249143094    5.16034074570299    5.77678064055127
C         3.54780850360512    3.74149693590350    5.79699728270296
C         2.97176231933542    4.88536754294165    5.16796454331752
C         2.12994846028305    4.44934648968546    4.11740099436786
C         2.56532111090072    3.74150555735182    8.30351361100861
C         1.71524640994289    4.88538445166383    8.36951168995234
C         0.38236064610353    4.44957339501304    8.55823889662804
C         3.39386871289679    6.31854347742351    5.31304857820841
C         1.58367913455443    5.32361352013748    3.02803702841183
C         2.12390240246908    6.31820857830023    8.55264912224449
C        -0.76087414592155    5.32398044445678    8.98041472175994
C         5.48683670857667    5.17732916423449    8.00245586775223
H         0.23095619380854    6.16921639762632    5.93854250545426
H        -1.10182583528756    5.08288927705203    6.34912419875306
H        -0.45714665668079    5.08530688506856    4.72319729706175
H         4.10359207609489    6.44310342909223    6.12207610295247
H         2.54063372126205    6.97647013461916    5.48807775682615
H         3.87603192112391    6.64986186871592    4.38993110204414
H         1.32787570191496    6.31328761245034    3.40178135773030
H         0.69882142296663    4.88412875756676    2.57019222240741
H         2.33845819381738    5.44438602075876    2.24597853329703
H         3.19957655754131    6.43302642922825    8.49040461247613
H         1.80697961096885    6.66225665042708    9.54021008748187
H         1.65591583100276    6.97236801468247    7.81461369727445
H        -0.69209646399250    6.31348296691246    8.53228616757774
H        -0.74406261604840    5.44478862499807   10.06722812613696
H        -1.71982860094321    4.88441320025099    8.71025908228537
H         5.11325544631880    6.18239270995711    7.85445057906059
H         6.39897656046848    5.08536940585460    7.42101023421273
H         5.75977581890701    5.08709324470506    9.04934009035120
C        -0.17292245893599    2.32265093563204    5.77681507158312
H         0.23091440356630    1.31377318163985    5.93859141461440
H        -1.10184801525628    2.40012493890182    6.34916739625223
H        -0.45718782547017    2.39766951286055    4.72323426703853
C         2.97170638248441    2.59763570670301    5.16799187268616
C         2.12989532417028    3.03368060208408    4.11743156157627
C         1.71526738589089    2.59761347796364    8.36952875863350
C         0.38237304141767    3.03339959660290    8.55825290616108
C         2.12396065293169    1.16480330442657    8.55269210588832
H         3.19964058519334    1.05002029906675    8.49047332233793
H         1.80702847209773    0.82075845597936    9.54025142548758
H         1.65601180583439    0.51061893802201    7.81465442281813
C        -0.76083880505198    2.15897381400382    8.98043915786259
H        -0.69201041707291    1.16945245503361    8.53237200366750
H        -0.74406262213721    2.03822443641467   10.06725442877326
H        -1.71980133108301    2.59847805138129    8.71023314665834
C         3.39377093014860    1.16444607481141    5.31307026897249
H         4.10347527712567    1.03985648116442    6.12211021938020
H         2.54051608818991    0.50653804203937    5.48807318298998
H         3.87594345236644    0.83312576922044    4.38995763297237
C         1.58360384951101    2.15943061191575    3.02806180876726
H         1.32778077029061    1.16975777742713    3.40179598781401
H         0.69875358916755    2.59893977362931    2.57022377339018
H         2.33837875691507    2.03865234870585    2.24599940824493
C         5.48687043297836    2.30567937380917    8.00238138982701
H         5.11329041622244    1.30061409962277    7.85438398348724
H         6.39897686048892    2.39765306380641    7.42088480784950
H         5.75986867822892    2.39590587433418    9.04925077717593

