84
CSD_code = LEQQAZ | q = 0 | S = 0 | Stoichiometry = C28H52Si3Ti | MND = 12
Ti       -0.55204889023295    3.45094449309604    2.73494324720051
Si        1.81819128023110    1.79422105973420    1.03862693052128
Si       -2.27367945960737    6.58185364173405    1.75522601143320
Si       -1.48149915997419    3.83784745630030    6.18863427740042
C         2.57912138031498    0.03972117505241    1.15444550952000
C         2.55376437628955    2.40838409107505   -0.62590960110404
C        -0.06985921257156    1.75391787579069    1.18775113928080
C        -1.03491808366832    2.55211461313522    0.51608523793839
C        -2.25795373699613    2.47006702624005    1.22265645176886
C        -2.07012072848422    1.60261663853777    2.33390904751097
C        -0.72418061958836    1.16679375299465    2.31609800356722
C         2.11646465045277    3.02030855073588    2.44163965595817
C         1.39009279830577    4.30979389962524    2.47640832484882
C         1.85061697399281    4.97374979651228    3.68688600931690
C         2.66950192205984    4.11441844013254    4.38303245532396
C         2.82531940423527    2.91428684068069    3.62062901872149
C        -0.91857981854986    3.09497873239768   -0.87868132649609
C        -3.57779887607617    2.98495813632577    0.72904621580702
C        -3.17615617522105    1.11785560261491    3.22691989874975
C        -0.12636683280802    0.08800460928187    3.17461311610024
C         1.26021248380151    5.15582235120832    1.21682549122913
C         1.55833653588062    6.40590199870663    4.00903027541573
C         3.32069261960245    4.33065063153869    5.71157098091261
C         3.64885767785288    1.75911802281211    4.08765927711719
C        -1.82822490801816    5.08542614926499    2.83350100139820
C        -4.15987193921343    6.91745223702248    1.90935624087047
C        -1.94045902610856    6.57231956746520   -0.13698137869950
C        -1.39867245533849    8.17031123216278    2.38692481802815
C        -0.55071324503218    2.98096525557482    4.78125541772451
C        -1.22223791785125    2.84387409333663    7.81509187463368
C        -0.86545988853733    5.61058330159245    6.57679135716952
C        -3.38311949624461    3.89160662546026    5.92970324375069
H         3.64279348551348    0.08700087601392    0.94526431756007
H         2.13257854879706   -0.60791645763621    0.40583909939692
H         2.45232706953707   -0.43706602161498    2.11774867932450
H         2.31426351143838    3.43707343679713   -0.86825487773813
H         2.23073167181828    1.78101157168707   -1.45123350129643
H         3.63599254438814    2.33771495881543   -0.57463590455047
H        -1.56815189988896    2.51521703923781   -1.53990753612017
H         0.09687804941942    3.00395438535313   -1.25191569321008
H        -1.23489600655653    4.13390747892079   -0.94636796245247
H        -3.46499468841216    3.95154456514264    0.24225693203459
H        -4.29414603695958    3.08925085766966    1.54222991322242
H        -3.99943320673690    2.28670283843796    0.00066995591711
H        -3.75488740714867    0.34188986058945    2.71896301139460
H        -3.85680836930992    1.93071251764479    3.48121618703107
H        -2.79164840249220    0.69678862602112    4.15460425119040
H         0.80006399191593    0.41838912030084    3.64759567153037
H         0.10068442051458   -0.78330435910971    2.55801687736296
H        -0.82005916313458   -0.23354000236175    3.95044100324416
H         0.73006221787505    6.08323407436921    1.43573917694829
H         0.73855381117305    4.63031970677746    0.41678564144150
H         2.25881997375610    5.41933486061814    0.85285918460511
H         1.82760238358206    6.64043499113712    5.03556983437576
H         0.50315447933016    6.63259828026709    3.86523277249460
H         2.14232836427267    7.06060929552799    3.35748133215718
H         4.40255794272430    4.41684442446585    5.59990721960764
H         3.12130561015066    3.49010593183310    6.37695575503539
H         2.95676980969307    5.23749956800079    6.18765627107327
H         4.61518373653734    2.10848394669257    4.44973831012763
H         3.81541570064734    1.05145924343400    3.28242655374228
H         3.15815515996562    1.24042567326191    4.91465643890395
H        -2.77510183469774    4.55780196067583    3.02560519503325
H        -1.53891077770817    5.52238427097512    3.79952868061048
H        -4.45939074663499    7.79224795946446    1.34039236273284
H        -4.44560895159966    7.08807884634327    2.94315023587387
H        -4.74479831744424    6.07752707264095    1.54546559492197
H        -0.91424730517465    6.32572771644778   -0.38894471686082
H        -2.13619275442867    7.56438695104962   -0.53494329444811
H        -2.59700739317743    5.88872953033774   -0.66650287301961
H        -0.34236643237124    8.19024544064959    2.13711273428633
H        -1.48364204751044    8.27304520980245    3.46458323519828
H        -1.84836982275232    9.05388289663767    1.94414539382206
H        -0.83281549886320    1.92530805570173    4.85342599557413
H         0.51870849015931    3.02343244293695    5.03103515328308
H        -1.58350885871720    1.82405649083788    7.72096309629875
H        -1.74695276530811    3.29818330717377    8.64963776113738
H        -0.17070676821452    2.79322230262130    8.08045842023485
H         0.21784558277227    5.63806183361391    6.62269692407586
H        -1.24233968214785    5.94191905740955    7.53969107436392
H        -1.18296372371468    6.33916545667707    5.83763359024046
H        -3.67093694220477    4.51290676194817    5.08766643515584
H        -3.87209638419513    4.29448724266248    6.81156741111583
H        -3.78664600137092    2.89735000695051    5.76450445309177

