66
CSD_code = LEQQON | q = 0 | S = 0 | Stoichiometry = C28H36SiTi | MND = 12
Ti        7.34907451754414    6.64815734098720   12.35266506301050
Si        6.30163031002937    8.54074935605823    9.97478227794229
C         8.90960139158516    6.47047627170256   13.65291083446629
C        10.03839776418362    7.25209348677240   13.84373000378216
C        10.99373484818976    6.93004604762570   14.80213045147526
C        10.83046234725442    5.80837520575245   15.59586429573862
C         9.70965358783897    5.01279052363332   15.43681853933185
C         8.75314219402111    5.33610161035344   14.47710776111568
C         7.54242418571377    4.55542889404965   14.26012785063597
C         6.69872926009761    4.96894512240598   13.31245908945001
C         6.05739545386240    8.50759840001862   11.85597330159475
C         7.07491249271609    8.90442292234269   12.77972032449440
C         6.84951297265415    8.24685901015066   14.01256178725519
C         5.69650923218510    7.42030823316074   13.85818784628024
C         5.22034583097094    7.57726326702526   12.53588277685186
C         7.38059767767746    6.97725779252789   10.04337199831570
C         8.73666575494964    6.98614180034979   10.49313470140192
C         9.05397567013040    5.70909864884503   11.01350565451883
C         7.89381987365944    4.88906425050819   10.89316336549472
C         6.86783840714053    5.67205596341624   10.31215864354650
C         8.03557580941274   10.04090023873095   12.58166152341975
C         7.47187281692334    8.54773721488724   15.34427131750921
C         4.96726137351769    6.76879423906997   14.99514564120400
C         3.89855775827884    7.04221429850904   12.07145635820384
C         9.78323809796343    8.00727572475150   10.15545090937680
C        10.42602216495942    5.19236227235036   11.32845053875069
C         7.89615477228962    3.39794309394214   11.05388857161698
C         5.57745700775235    5.08127642914961    9.82718859097138
C         7.10922507027687   10.13201095801761    9.27762965916214
C         4.73503343273279    8.49365958583039    8.87180691339321
H        10.19591643049097    8.14742974520430   13.24666182283286
H        11.86586494444595    7.55825155556969   14.92897182464691
H        11.57389427151879    5.55752837657232   16.33994511146026
H         9.57332333046469    4.13734783648083   16.05955770032676
H         7.38194695601818    3.67382969716115   14.88469031204115
H         5.78002668745292    4.39541955404892   13.13993560328216
H         8.51666970006930   10.29898365498936   13.52335391731818
H         7.49312522632320   10.92015373562445   12.23092290229472
H         8.81310033969176    9.81304195432891   11.85434695563061
H         6.83626653324001    9.24730721469275   15.89437988374339
H         8.46122084036452    8.98804069970052   15.24212611069335
H         7.56973131995707    7.63920515353030   15.93793192050287
H         5.66001330439794    6.25723086734567   15.66298118781852
H         4.23630186768441    6.04776115736734   14.63550750980762
H         4.43893675660527    7.53130444701995   15.57417158256337
H         3.84790653699480    5.95589631001498   12.15853200036198
H         3.69968732392415    7.32389658859445   11.04326653949898
H         3.10169368048787    7.45813074483643   12.69302067047963
H        10.36963698002970    8.30146535862127   11.02695387378723
H         9.34403810161557    8.88915456331616    9.70059602461195
H        10.48065926462185    7.57341479025254    9.43381436323638
H        10.39735450135629    4.48631548131319   12.15794781335882
H        11.10434847641092    6.00081309132289   11.59208673954769
H        10.83053169389164    4.67422516112734   10.45430006538648
H         8.37234013805600    2.93985030588314   10.18236580818457
H         6.88554157838009    3.00326647236420   11.13448234341293
H         8.45652429850343    3.10207601767965   11.94026041096053
H         5.78784473134716    4.35138738177606    9.04108683926736
H         4.92419716790493    5.83900213541520    9.41022482939723
H         5.04885929049031    4.55822895267742   10.62550097957723
H         7.93136702258090   10.52755180258031    9.85865165333698
H         6.35522162368906   10.91033845891811    9.21495916614468
H         7.46792984659737    9.95179555914887    8.26883035498584
H         5.03515955073373    8.54926387872242    7.83039339686814
H         4.12443984480993    9.36663466441088    9.08017814490343
H         4.10065776234421    7.62274842845573    8.97685704741746

