23
CSD_code = LEQROP | q = 0 | S = 0 | Stoichiometry = C10H8Cl2HgN2 | MND = 4
Hg        6.50575872934163   11.29623767582780   -1.76271214124774
Cl        8.69613479585874   10.64086585648406   -1.74126565657498
N         7.06372214451897   13.39883920887086   -3.02662042866567
C         7.84077047130666   13.35553067108291   -4.09851095105332
H         7.89717952029187   12.40177764589557   -4.60612261768397
C         8.55057954581987   14.45256605433900   -4.56123180857095
H         9.17042996722734   14.36840195759331   -5.43911090509905
C         8.45295533221641   15.64323484216906   -3.86022636301265
H         9.00457647125739   16.51680524018557   -4.17411558903343
C         7.63853930289087   15.69401465936524   -2.74214100607287
H         7.56237283417941   16.59989738203125   -2.16198645359633
C         6.94792931476404   14.54724465675844   -2.35395810595506
Cl        4.31591220989744   10.63910628765969   -1.78328800503405
N         5.94694922543880   13.39875549275952   -0.49934269539887
C         5.16971685659951   13.35544633061314    0.57241759843471
H         5.11284518263737   12.40156032652631    1.07972726340601
C         4.46025271347087   14.45262642971211    1.03532036560514
H         3.84021633560284   14.36845075684862    1.91306713431781
C         4.55846894184311   15.64345636479493    0.33467040294210
H         4.00716127163846   16.51716191550742    0.64873400155896
C         5.37304008037637   15.69421369312145   -0.78330161093964
H         5.44964441100932   16.60023140173629   -1.36318756463682
C         6.06324434181026   14.54727515011897   -1.17171486368778

