90
CSD_code = LEQWEK | q = 0 | S = 0 | Stoichiometry = C37H49FeN3 | MND = 7
Fe        1.25727065193715    9.36812705855085    9.18214641694403
N         2.05704953801003   10.68512325471992    7.80023098552433
N        -0.10637261030367   10.53910457420861    8.97238283912580
N        -0.22038532844913    8.34811180034941   10.01259380017405
C         1.62787147560227   12.86600805446162    6.66166414479000
H         2.52957849299118   12.64892975870175    6.09458953652611
H         0.80491770054253   13.03078304069977    5.96662971938843
H         1.77251785026957   13.78541422899177    7.22779967044671
C         1.29482450733182   11.73005876787247    7.58463613522420
C         0.05130265994553   11.70040112839682    8.27592430859605
C        -0.91840104483973   12.69994392907557    8.28783602281779
H        -0.76598277467615   13.60834297915802    7.72743296668467
C        -2.07439289106118   12.51901708488583    9.03370072765692
H        -2.82986438418501   13.28944777962112    9.06229824360416
C        -2.25080054083711   11.33813683946677    9.73495608624839
H        -3.14218932959052   11.17466247419440   10.31962480081300
C        -1.26755415969081   10.35135981222431    9.67658861878317
C        -1.31681784467604    9.05090895855199   10.23356859805105
C        -2.54867463681080    8.53379218010476   10.91878798240678
H        -2.49725082832659    7.45410980604310   11.03597647772178
H        -3.43595858646450    8.78250081554148   10.33792036762345
H        -2.65621381355917    8.99162951869153   11.90239276069574
C         3.31590320143545   10.59044893597321    7.18970432361241
C         3.46278430519571    9.67809494059932    6.12785893895281
C         4.70981253511750    9.51127374413653    5.54850465241198
H         4.83512416649468    8.82523938221434    4.72635171321247
C         5.80669203463463   10.21699794873881    6.00741416307721
H         6.77483457902417   10.07137521024152    5.55135902795270
C         5.65553570660537   11.12060860899855    7.03941819981732
H         6.51369533368451   11.68225014415895    7.37646189149982
C         4.42194254845053   11.33548402659125    7.63929278647711
C         2.24779915955298    8.93825080296427    5.61496081426718
H         1.57860620845996    8.77678180357136    6.47251176921675
C         2.58713294081238    7.58399971193515    4.99571415369705
H         3.11154272751079    7.70338318364328    4.05023972878580
H         1.67147298312535    7.03407564910699    4.79602074858115
H         3.20314192226663    6.99158001367186    5.66695990907939
C         1.50539139533038    9.79950345261085    4.58852576018351
H         2.16632336008756   10.06282865391191    3.76436327981919
H         0.65431785362024    9.25275443015878    4.18791394031193
H         1.13852362558376   10.71259794244831    5.04636218185272
C         4.30950700116056   12.40101354145506    8.71048807467918
H         3.28043992437362   12.41212566130682    9.08218907401064
C         5.24742101993713   12.15729474391449    9.89761189921802
H         5.02322202438277   11.22545238756235   10.40710345906778
H         5.14109614889292   12.96833148545586   10.61552624579907
H         6.28514978956917   12.12702164832968    9.57382624690387
C         4.64248390746935   13.77791321356054    8.11966164460905
H         4.09810382733262   13.96280713075572    7.19857288107974
H         5.70526883094452   13.84753166975522    7.89885387728106
H         4.39297225770396   14.56084073224422    8.83307342704143
C        -0.18507360308312    6.98423328349645   10.34273516183558
C        -0.01233135927450    6.53407734884620   11.66221994342401
C         0.08340495104941    5.16901374495469   11.89661425615272
H         0.22672486236567    4.81156008244013   12.90523451512040
C        -0.01422871749805    4.25785928444504   10.86525792233962
H         0.05607312351783    3.19923485366570   11.06771772275537
C        -0.21440384623159    4.70482065223847    9.57174650764901
H        -0.30847357419266    3.98098060534932    8.77821238118508
C        -0.29479428189594    6.05781836531695    9.28850284673964
C         0.05681165716108    7.48667104953220   12.83632086208621
H        -0.09291196710935    8.50474507218196   12.46471699158089
C        -1.04758614674790    7.18011458823315   13.85402116883253
H        -2.02201257537986    7.13021093737870   13.37560402597605
H        -1.07638619162370    7.95591635764032   14.61669923125419
H        -0.86449379550124    6.22862536488191   14.34719060608171
C         1.41670587704010    7.42111510207905   13.53860385154185
H         2.22477633792595    7.69286133613335   12.86480150536724
H         1.43118649502085    8.10943265061040   14.38174265457073
H         1.60864586557760    6.41857102167685   13.91391356723025
C        -0.54238556033681    6.56042037894336    7.88491249193537
H        -0.00884545991255    7.51905859007263    7.78656683135019
C        -2.03808067263217    6.82288224608897    7.67973996615865
H        -2.22280830072179    7.15252933036429    6.65947664621757
H        -2.61012151068955    5.91404099233436    7.85918612512564
H        -2.38991941843355    7.59578900430542    8.35530601004408
C        -0.04385754460380    5.61048653782536    6.79919837562773
H        -0.12449716881391    6.09726480272114    5.83017439831008
H         0.99537294308577    5.33827786653515    6.96283390441103
H        -0.64346322180435    4.70355123631695    6.76145511484802
C         2.17396821851367   10.09840971860577   10.94534734817550
H         1.55071444538752    9.67152425040560   11.71667736833992
H         2.40278275851452   11.14414922325917   11.09206973173118
C         3.03710248674731    9.31140003269666   10.21151488899619
H         3.88044930575624    9.72770273454509    9.67555884346290
C         2.68341785949045    7.94405836505020    9.94378620065630
H         2.27235084684061    7.31970932600881   10.72666632072208
C         2.76651141793917    7.47555789894716    8.66794185124049
H         3.36021703439810    7.98952423895939    7.93131699130581
H         2.47264300824041    6.46702688038265    8.43368884727845

