134
CSD_code = LEQXOV | q = 0 | S = 0 | Stoichiometry = C51H79N2PTi | MND = 4
Ti        9.04476221433044    5.52346681747449    0.97691395627168
P         8.03894730803762    4.54496628732036   -0.84888101947268
N         7.73603763194691    6.83944045177468    1.55667298246232
N         8.93401838046709    4.24001083962455    2.42741155297486
C         7.86267980397514    7.09576401320767    2.84242999743064
C         8.59799678228770    6.23790015837014    3.68885199935862
C         9.03282843120125    4.90808074479591    3.57095015255404
C         6.97832213895131    7.53132887157950    0.58984725585956
C         5.68685521359309    7.07885494279095    0.25698539762340
C         4.94800660017329    7.78088040190375   -0.68527987181781
C         5.47012999610506    8.87437958713777   -1.34473279429619
C         6.75551473838621    9.28536107448291   -1.05709914859836
C         7.51325399306136    8.64839899334769   -0.08564551027281
C         8.91069397591502    9.15912042931385    0.19244498516505
C         8.97840858565842   10.67585993314021    0.39661682645167
C         9.80963399651336    8.74938481978712   -0.97649481531562
C         5.07538702094780    5.85273084472724    0.89945273999558
C         4.49202129408926    4.92834390202263   -0.17190023116741
C         3.97982784650323    6.23110159027980    1.90176299979560
C         7.24645989580188    8.30258320706801    3.59429383592723
C         6.28402266407306    9.17743479990952    2.78424367735137
C         6.44837704421516    7.77413766105592    4.80283512335831
C         8.38032082868594    9.21883969574363    4.08568574868558
C         9.64024330538451    4.35585812681022    4.88729663190245
C         8.66948476134981    4.58631347224143    6.06358852531273
C        10.94194415655053    5.13368427520882    5.16110975735349
C        10.00910802034612    2.86888637558159    4.88457560439168
C         8.91232421055168    2.84380859694455    2.26942939649829
C         9.93437576488520    2.16098210297517    1.57276653581761
C         9.92322859791915    0.77457060852761    1.54858460918918
C         8.90706665939832    0.04742102382200    2.13740552443514
C         7.84656855864583    0.71824804220776    2.70919672411077
C         7.82810339015595    2.10301578536092    2.78600429708890
C         6.58215404062663    2.77527941735850    3.31836488932283
C         6.11819531819911    2.22763953909617    4.67051830868508
C         5.48201662317766    2.57840385447296    2.27151478104623
C        11.04892315624863    2.90262845188704    0.86650286732437
C        12.24101093848540    3.12777814675031    1.80374085796394
C        11.54715421123628    2.17144283442328   -0.38309872868572
C         8.93580948640335    3.48760726686979   -2.00856761655415
C         9.98464088807980    3.97141920046474   -2.81510700983394
C        10.53318060792099    3.16260152223705   -3.79540509728801
C        10.08722027313178    1.86968053084558   -4.01618177480543
C         9.06570316402709    1.39056553920702   -3.20856442889505
C         8.49070407665443    2.16309252610976   -2.21609779615456
C        10.46735978596145    5.39103235556572   -2.65724483948941
C         9.69359387077442    6.28412405182328   -3.63081505889992
C        11.97373812983885    5.56456143066721   -2.84708300135264
C        10.68739256098465    1.02342667505582   -5.11219453225243
C         9.63192798541137    0.66738238641546   -6.16145988475382
C        11.33025774979014   -0.24232699696553   -4.54129174019323
C         7.36551016920847    1.59714262799086   -1.38412783370747
C         6.03785163943848    1.84787611312356   -2.10085289071415
C         7.52514111431146    0.11292453618583   -1.06062225152598
C        10.97960925546348    6.29536796123017    1.08901648427782
H         8.75987882069791    6.65074834488799    4.66896065327287
H         3.94225575987591    7.46530964201671   -0.91410436164857
H         4.88235536770077    9.39822990525857   -2.08338712023073
H         7.17104049090099   10.12871620648453   -1.58676276691370
H         9.28306815443799    8.67827948238212    1.10645451400280
H         8.28013490245116   11.01136353679023    1.16074536370937
H         8.75277499306988   11.20719567429089   -0.52413328079884
H         9.98358050892883   10.95792986230796    0.70574015281209
H         9.47687703357982    9.23290715537053   -1.89258066674529
H        10.84395727270360    9.03466406817975   -0.79050722881850
H         9.75014658406137    7.66689313055490   -1.11008874087302
H         5.87497503012345    5.30812856031682    1.42491275657861
H         5.26994764690859    4.66868160179845   -0.88579351901990
H         3.67006114967387    5.40219859277456   -0.70138436827319
H         4.11205677637592    4.01614359668362    0.27978252839789
H         4.38408936409018    6.78022347200609    2.74869752950498
H         3.22306711674890    6.84930065853543    1.42266612481794
H         3.49533818512499    5.33399902530066    2.28201265848464
H         6.77830528602202    9.67221584046697    1.95666072020397
H         5.44870376991550    8.60773113207522    2.39098621571317
H         5.88413407618203    9.95031001354773    3.44030269026924
H         5.78211174477277    6.96977504320126    4.49768958387084
H         7.08945647770634    7.39738445855100    5.59374169736682
H         5.84518724933359    8.57572246005086    5.22431128651723
H         7.95889112318135   10.04791470277379    4.65107481204982
H         9.08339446115922    8.69757522814855    4.72993292463836
H         8.93287235846638    9.62832965355963    3.24317675241381
H         8.92033809534600    3.91512282627972    6.88230701615242
H         8.73011469142045    5.60032360695108    6.45072400077768
H         7.64251298305800    4.39509028630021    5.76572768429613
H        10.78505317691040    6.20923536790637    5.16752700184194
H        11.34301001808077    4.84315137898918    6.13040079299573
H        11.69226125803552    4.90922758817593    4.40569553451746
H        10.55066803111562    2.64589077252174    5.80372912384634
H        10.65046252573461    2.60582132303422    4.05035396623359
H         9.12902692770301    2.23507924811639    4.85165433657338
H        10.72742107220748    0.24818633459178    1.06040057975000
H         8.92598969525346   -1.03173484071215    2.11870030991743
H         7.02033668250519    0.15353315535381    3.11295698535982
H         6.76619285050773    3.85196582500988    3.42402876315265
H         6.92402971361017    2.22726130386453    5.40033979622266
H         5.30402541602439    2.83870635994011    5.05652253215481
H         5.75110097746014    1.20907756348789    4.57283444666516
H         5.83052909830059    2.93289049466861    1.30388169356675
H         4.58428965744965    3.12318567334484    2.55563183857071
H         5.23007670403401    1.52406309472772    2.17922453049567
H        10.63408125190596    3.88309202253179    0.54627029796487
H        11.96439375467436    3.74361144823454    2.65598680516255
H        12.60978713887749    2.17166812736727    2.17467044765947
H        13.04888511959686    3.62469582214440    1.26974329650631
H        12.19262013051185    1.33544119235436   -0.11959651954441
H        12.12584583658248    2.85659860310187   -0.99839742766877
H        10.71604622320024    1.80761302235262   -0.97935106967558
H        11.32396769100610    3.55145933967313   -4.42108080410963
H         8.70217674969231    0.38665762953802   -3.36529573936521
H        10.21433088777042    5.69213923059382   -1.62240161279528
H        10.04843405783067    7.31163043736012   -3.58334685092459
H         9.81725002359610    5.92018388243779   -4.64924431599893
H         8.63387280105737    6.26280922997284   -3.38054951592907
H        12.52349176320348    4.82739485964588   -2.26469097166224
H        12.27364215525283    6.55845879610644   -2.51768121675507
H        12.25680621184108    5.46120679071922   -3.89199099181940
H        11.47183560826917    1.61030731089971   -5.60468227780419
H        10.08112701623111    0.10648513065328   -6.97903127105148
H         9.18322057222198    1.57229417978586   -6.56537222937786
H         8.84242060691142    0.06255149035290   -5.72232862312693
H        10.58216043913298   -0.87476166605465   -4.06962181032503
H        12.07777925311127    0.01852674367245   -3.79497225439135
H        11.81252913863242   -0.81262367321752   -5.33320650542562
H         7.36058422685445    2.15511437733170   -0.43757677547641
H         5.20174106670390    1.50447843826781   -1.49441397263497
H         5.92239735005450    2.91199950829268   -2.29162967280106
H         6.01863935084693    1.32329423752696   -3.05464527336113
H         7.31446183674696   -0.50702975316416   -1.92965023371299
H         8.53336193875017   -0.09809479715289   -0.71308955489211
H         6.82776958308008   -0.16761377041637   -0.27375538636915
H        10.98527810387408    7.38769264032631    1.20802006774397
H        11.44652749956417    5.90533110700569    2.00597552143435
H        11.67788447961338    6.07143120231552    0.26812144722895

