69
CSD_code = LERBES | q = 0 | S = 0 | Stoichiometry = C22H41ClIrNOP2 | MND = 5
Ir       15.46170837563229    5.20683649889785    6.48094005060080
H        15.29991340523245    6.40301280363839    5.56398586655389
Cl       16.49838150008461    3.63685126844514    5.02909865896464
P        13.26937209693758    4.56507565135312    6.15552079534131
P        17.38631268697785    6.05247079400644    7.46001908667335
O        12.44930290587357    5.42278613912111    7.26764269316111
N        16.74569559717492    6.76278354349962    8.85072632399932
H        17.29364475474085    7.37978785058615    9.43500461334648
C        14.59285949452861    6.17936355996082    8.01560096096074
C        13.21803277499346    6.11066391518674    8.20005880956528
C        12.59511923791505    6.68978860599468    9.29591173038385
H        11.52413806199593    6.62157634123081    9.40460035529076
C        13.37249751874592    7.34879612833512   10.23328776357260
H        12.90036498821038    7.81261423280565   11.08585363521964
C        14.74988527976542    7.40407081601445   10.09965080899140
H        15.35043734362580    7.90032886448647   10.84929048143352
C        15.35718378236210    6.81265660164030    8.99894971468897
C        12.94044150206814    2.80678403947149    6.75798716384398
C        11.51931718411839    2.57743623780799    7.26451240369370
H        11.49119054154893    1.66417588841209    7.85899746385677
H        10.81042422719118    2.46587982452705    6.45024053182228
H        11.19814694126361    3.40321425838162    7.89635038922138
C        13.32550955740924    1.80802710708636    5.67317418791808
H        12.59114596036709    1.79165128700074    4.87095073568242
H        13.38516103333481    0.80409175698425    6.09333964044212
H        14.29790295383505    2.06041736048825    5.25176953679826
C        13.91416640989494    2.67283914031660    7.93392860473936
H        14.93916818022662    2.82670774393066    7.59213730020604
H        13.85885370365335    1.67474704066939    8.36890671348151
H        13.68472133073715    3.39726964493390    8.71724712929136
C        12.29292321135317    5.00963145469141    4.61348526423771
C        10.85609775759290    4.49970885488254    4.63048272783623
H        10.81475208768751    3.42205052349863    4.49384777004974
H        10.29831776175739    4.95897260792422    3.81474051533901
H        10.36947905257292    4.76367638071545    5.56691638709380
C        13.06047956142459    4.47762260586012    3.40662501061267
H        12.63954115225740    4.87938480915441    2.48628584539693
H        13.02139964443716    3.39339693955937    3.35248324995474
H        14.10561253165199    4.77610154754677    3.46936889093948
C        12.28682493594776    6.53902345120789    4.57195692960860
H        11.70343921803118    6.94540851527039    5.39470074796588
H        11.85322682218293    6.88500923097682    3.63539629892210
H        13.30389374495291    6.92294249011971    4.64747567754424
C        18.56540016284757    4.78026699449962    8.20876522740823
C        19.30806297888589    5.26546907054654    9.45190868315650
H        19.97359518477543    6.09587072712529    9.23876109563773
H        19.91216064385672    4.44771459821373    9.84512243304768
H        18.60638022635881    5.56351062108365   10.22873898373795
C        19.52800241028230    4.26709195283936    7.14316499422465
H        20.02059662068762    3.36002576073501    7.49311198660341
H        20.29929845355459    4.99761905510427    6.91046861173311
H        18.98082637967648    4.02569577795167    6.23264086074657
C        17.62606166913848    3.63980174352167    8.61353709829368
H        18.16827745728382    2.87053106168897    9.16288374294029
H        17.20664831274968    3.17558813228024    7.72206597423980
H        16.81976175118916    4.00799835865212    9.25154167180109
C        18.32123151734011    7.47209506266182    6.62674239863751
C        19.57231900672234    7.94586420497491    7.36134280561591
H        19.35246722392390    8.20544820510724    8.39578752515482
H        19.95647297155465    8.84003576491477    6.87071581336679
H        20.35921387097693    7.19660262244807    7.34071148280030
C        18.66602909832683    7.02767457418213    5.20680198211003
H        19.44114889262514    6.26708186997575    5.20288903549375
H        19.01861827286027    7.87592090801324    4.62199266303799
H        17.78202905164269    6.61481659524851    4.72270745005754
C        17.31825718124142    8.62715117659270    6.55793842279894
H        17.71127266097606    9.42274361865442    5.92760018633898
H        17.11984059457871    9.04221305258502    7.54390795528744
H        16.37424059362737    8.28463413375433    6.13610145054407

