92
CSD_code = LERCIX | q = 0 | S = 0 | Stoichiometry = C38H52AuP | MND = 2
Au        4.97996087570444    4.92585514470950   23.01717757415672
C         5.07562838689415    6.04953022532562   24.62018742762905
C         5.22269599938521    6.68671400217466   25.63290549335397
C         5.39001940064463    7.48944671387263   26.83622317170517
H         5.95020977714363    6.92162001532750   27.59420891339638
C         4.08767580105075    7.94714850030925   27.42701041751115
H         3.19546844815487    7.81350734466549   26.83059295808179
C         4.02489790775291    8.47276691633520   28.65662554575224
H         3.05540848246194    8.67629018606608   29.09605266818674
C         5.16252403447564    8.83313559884964   29.45303924442528
H         5.01678400081190    8.84085744681408   30.52684288528805
C         6.32243438378226    9.31907654448098   28.95654251852075
H         7.06331746127972    9.69830866472592   29.65055235936605
C         6.57935261764203    9.54136417148744   27.56273746379545
H         7.18938971283008   10.40506846152743   27.32493400388365
C         6.09693080280211    8.78655113015604   26.56819861085139
H         6.22312062030121    9.07406273380077   25.53390665032369
C         5.06513930466759    4.09018267241814   19.55397177825349
C         5.21266795048696    3.18346999501935   18.50241456631059
H         5.18677099963101    2.12662082887694   18.70846440629280
C         5.39433706557147    3.59774141995196   17.19836491028736
H         5.50063504097909    2.86694185454542   16.40995937660258
C         5.45172226084229    4.95133648819880   16.91524084182216
H         5.61084882980541    5.29351787969992   15.90341517851844
C         5.30519943207069    5.86150710366541   17.94188189009867
H         5.35785871231237    6.92006453568079   17.73087326420275
C         5.09730051323745    5.46391464440223   19.26279788946723
C         4.93204950795700    6.57053422426753   20.24329764639304
C         3.70417083238028    7.23675764349143   20.34817769639520
C         3.58610563084594    8.29937755499674   21.23021928935411
H         2.63430120109936    8.79703585097121   21.32221623313531
C         4.65765926729217    8.74962972829380   21.98324357042346
C         5.88539434829225    8.13747830582601   21.80138656155533
H         6.73945363254334    8.50825869417842   22.34610825273483
C         6.04345168133297    7.06147120039999   20.94087399418263
C         2.52296361294264    6.89320633370076   19.46624652180530
H         2.68857544154323    5.90720433657293   19.01824042679943
C         2.42646212428458    7.91127526964389   18.32401492271140
H         3.31096056356156    7.87759882570003   17.69376593099141
H         2.33042879015618    8.91834460890579   18.72358712177535
H         1.55662812927771    7.69790333559647   17.70581075290940
C         1.19702103215365    6.87454076751569   20.23392883311754
H         0.83426785572261    7.88539160104325   20.40212524548552
H         1.30699685528781    6.38733305964411   21.19851500946975
H         0.44065928419592    6.34328177896854   19.65949495865206
C         4.49770212703282    9.88498383307656   22.96099318087568
H         5.46896362320390   10.06312207469262   23.43522645531148
C         4.07188671278962   11.17449451694024   22.25644926504681
H         4.01152893411359   11.99056513885925   22.97335908805255
H         3.09670061752338   11.05792321152406   21.78974671636870
H         4.79131787897692   11.44293724326236   21.48514165916247
C         3.49820000731018    9.49316960208993   24.05027299858575
H         2.49352833889084    9.41291547034180   23.64158301302982
H         3.48968450974507   10.23647182923910   24.84488495801114
H         3.77780277417198    8.52954628919650   24.47056167654701
C         7.42569299959205    6.50755395606054   20.68529070194684
H         7.32196341624735    5.52761680291628   20.20912575027515
C         8.15637599875387    7.42561380154588   19.69961349945224
H         8.23360219688079    8.43159311934693   20.10589698027390
H         7.62096849517739    7.47677225242131   18.75418604759676
H         9.15940634349230    7.04976809118335   19.50790869894469
C         8.25135351823225    6.34667600158258   21.96251362788074
H         7.66660501273467    5.85559122991829   22.73919898502690
H         8.57458535336727    7.31123084095883   22.34425006433613
H         9.14283109678136    5.75490153317732   21.76032189354287
C         6.30675264398179    2.15435482192297   21.44785651125067
C         7.56460072927560    2.75794033366619   20.82080999444998
H         7.46472579975406    2.87759935871587   19.74316340212770
H         8.41900222653353    2.10928423104536   21.01191948323717
H         7.77511280395001    3.72748554502022   21.26637227353368
C         6.08478196269060    0.74979060007983   20.88538516934599
H         6.95900536598863    0.14433344369303   21.12752643088460
H         5.98114432115980    0.73898031774192   19.80431675901589
H         5.22135192643362    0.26523851757669   21.33274068974756
C         6.55637618494337    2.01805007781725   22.95529360541406
H         6.78767816787244    2.98450709351041   23.40182959894142
H         7.40289776966114    1.35440461603938   23.12856638446269
H         5.69424446084628    1.60479001656773   23.47262247797249
C         3.23209868726260    2.59751486094484   21.28749018972095
C         2.88896705528294    1.68702217750492   20.11075526039235
H         1.87896421859280    1.30273609323090   20.25521928386225
H         3.55610529483356    0.83481179623417   20.03018928188715
H         2.90166117274368    2.23874908178482   19.17301279899065
C         3.08448233053427    1.84663965761861   22.61075671941020
H         2.03950124914676    1.57891247263410   22.76508131875937
H         3.39573143738883    2.47865130727064   23.44361815730421
H         3.66647965827358    0.92828915045197   22.62787725731053
C         2.24482504368919    3.76559709899198   21.28331957492031
H         2.45035953469754    4.44663693482581   22.11021852681398
H         1.22346134257316    3.40075678751440   21.38399064504756
H         2.31952516645744    4.31797640065681   20.35060545426508
P         4.91931487668083    3.45777602575563   21.27476251451656

