94
CSD_code = LERCAM | q = 0 | S = 0 | Stoichiometry = C39H42BClMoN10 | MND = 6
Mo       -0.54022448079202    1.41760563549495    4.74714886161643
Cl        0.91919470356632    1.25567927413682    6.67365745310133
N         0.28705535870775    0.20486234273982    3.75873435542481
N         0.88857735717902   -0.54420480124216    2.87995827406052
N        -1.86000052349111    0.51624886776682    5.48597990986026
N        -2.89895946583351   -0.01467722920268    6.08174145660906
N         0.82827150969150    2.94145175035233    4.00301281425722
N         0.37001597587487    4.07336336927477    3.43127558962210
N        -1.74029566179904    2.00006171394848    3.04474849229050
N        -1.83450880432701    3.27625940136673    2.63043368968790
N        -1.33702582314079    3.24607372218007    5.63985284075781
N        -1.62353232180050    4.31583881641164    4.86951780729069
B        -1.12853357431382    4.38974495319644    3.42192930319142
C         0.57895664230421   -1.90416691423874    2.76379875924625
C        -0.06384894235400   -2.53790906333989    3.82784371372109
C        -0.42254084754270   -3.86604010252955    3.73276243774206
C        -0.14307024606511   -4.58522365720348    2.58087030001973
C         0.48975891350901   -3.95705110439696    1.52002082062202
C         0.84595159106225   -2.62433089186583    1.59871429547652
C         1.80301558682785    0.06864127923173    1.99201729874961
C         1.45632211692399    1.27267207660959    1.38437521675204
C         2.36239037740567    1.92457431524686    0.57045942172167
C         3.61741098986919    1.38107299613256    0.35053237188807
C         3.96081775903531    0.17684939411127    0.94549749910638
C         3.06341805250347   -0.48009109951920    1.76522412484194
C        -3.98268567425252    0.79514500259571    6.43876669660594
C        -4.73925156739713    0.54425712283029    7.58458444785990
C        -5.77086166955049    1.39506170747281    7.92792902754074
C        -6.06107468468186    2.50526804181223    7.14957218908659
C        -5.31447674198588    2.75449582235397    6.00918849287724
C        -4.28705579182623    1.90638111715700    5.64988242751685
C        -2.85206824008310   -1.37433499533813    6.44055453699297
C        -3.98336887434686   -2.18397764286101    6.36459623119879
C        -3.89214669670722   -3.52019184928102    6.70344745980269
C        -2.68253905396188   -4.06149332460202    7.11045085215368
C        -1.55636875031109   -3.25669375162038    7.18119117768070
C        -1.63524373323750   -1.91748187657032    6.85139444335670
C         2.15698915886800    2.95251988648783    3.91123098887207
C         2.56055484950586    4.12111295722559    3.25740731729241
C         1.39904375771631    4.80887054259879    2.96826964174597
C         3.05543898597086    1.89388675352311    4.43824269640728
C         1.24346627957126    6.11428644467595    2.27480423802749
C        -2.44829383272120    1.24263356366550    2.20591039782486
C        -3.01075601119373    2.06187170253713    1.22301015608657
C        -2.59830205476193    3.34744597265714    1.52439796543755
C        -2.58213845186331   -0.23007801765847    2.34717600580596
C        -2.90253797324892    4.61165844123597    0.80545262707266
C        -1.81579954035779    3.48787175107150    6.85888840650834
C        -2.43467502457460    4.74190510415059    6.86749702456214
C        -2.29301459726704    5.23825402926402    5.58730111930274
C        -1.68180630696249    2.57462699919273    8.02219350669145
C        -2.77385940072993    6.53225796773674    5.03644209081369
H        -1.34295613116134    5.44633138201213    2.94614113529552
H        -0.27038579542693   -1.96241804689130    4.71843489904410
H        -0.92181519259674   -4.34030132875240    4.56482366690284
H        -0.41983827782621   -5.62598820803463    2.50706050472622
H         0.70064669842145   -4.50829302424373    0.61492300176771
H         1.31714033034538   -2.14086101791074    0.75572688240886
H         0.46721386199212    1.67884017574500    1.55080913153491
H         2.08732930839499    2.85865588815868    0.10253046838097
H         4.32592823783456    1.89279383466835   -0.28328254646508
H         4.93999284774186   -0.24727664788920    0.77792728802382
H         3.33443118890122   -1.40911281852205    2.24433080080899
H        -4.50216889705531   -0.30419480353332    8.20881570239960
H        -6.34639595548685    1.19850231815307    8.82082715646364
H        -6.86356592673728    3.17034981168859    7.43051439377934
H        -5.53826019307834    3.61344724906279    5.39291803596776
H        -3.71115910228569    2.08256828563511    4.75056197405839
H        -4.92278685210731   -1.76409019311024    6.03598799772343
H        -4.77006352472592   -4.14675159524120    6.64175683565845
H        -2.61973346911506   -5.10721897023740    7.37239121624704
H        -0.61285069246040   -3.67130761269482    7.50363899654205
H        -0.76865193308102   -1.27060912338994    6.91971342535097
H         3.56442749487765    4.41532901698686    3.02857762849550
H        -3.63253968936003    1.75610317041272    0.40661852880892
H        -2.92067075022470    5.21299489382896    7.69723537270443
H         2.53941839474160    0.93868357111507    4.50930875734839
H         3.92489986922883    1.79479219529659    3.79046467028839
H         3.39342725573880    2.16059263024236    5.44033505526769
H         0.62639212600719    6.00829859163497    1.38400695311523
H         0.77045670999846    6.84534557068354    2.92835653066494
H         2.22207234197850    6.48595397915131    1.98327742344867
H        -2.22490716572005   -0.53882140571033    3.32825834813370
H        -3.62224315541838   -0.52467822223936    2.22046135012428
H        -1.99218110153270   -0.74054027156050    1.58585334675520
H        -1.98648387941880    5.09535542150804    0.47140876031757
H        -3.52283116751797    4.39560754745051   -0.05998120861744
H        -3.43238256375634    5.30678538230535    1.45427476891685
H        -1.52730597137661    1.54781396666005    7.70213865531265
H        -0.81744701699801    2.86494356579439    8.62057524599469
H        -2.57365144096134    2.63691864717085    8.64350237488215
H        -3.42621004939025    6.36840974654744    4.18040820292853
H        -3.32676906640216    7.06685494414270    5.80401321518497
H        -1.93810631010161    7.14992698658857    4.71146578126519

