100
CSD_code = LERDAQ | q = 0 | S = 0 | Stoichiometry = C40H53AuN2O4 | MND = 2
Au        6.49178146002483   15.01093159113677   14.25222325152125
C         6.34205197741457   16.96590131922114   14.67080503664729
C         6.19008516556818   19.18336706544279   14.42945623144915
H         6.25760865828425   20.12185914550607   13.91890365092395
C         5.81177222819979   18.88218296406441   15.69420759611276
H         5.48579182373744   19.50682599971299   16.49998764851097
C         5.58526676074616   16.76324264032869   16.97603226061277
C         4.26446583187069   16.34941527551263   17.15985213185246
C         3.97179168286958   15.58597347618031   18.28144150805701
H         2.96303754251994   15.24030013330542   18.44374996522945
C         4.95923367949703   15.25312601232780   19.18840625597914
H         4.71428582934649   14.65699155665029   20.05477112503159
C         6.26061185197548   15.67007448227349   18.98645837705939
H         7.02381303179819   15.39276562636405   19.69662571230476
C         6.59932007952994   16.42960424498971   17.87507240078853
C         3.18593562460351   16.67949343820687   16.15494783207518
H         3.58795009977761   17.37058024887322   15.40685223730941
C         2.75004734930925   15.40458227657596   15.42880811113503
H         2.31608028746334   14.69482805512814   16.12829422520422
H         3.60446806648126   14.93236467480569   14.94548422929721
H         2.00844396085869   15.63948930782151   14.66871731921497
C         1.99377285454951   17.36906266163160   16.82151477889961
H         2.31856729692883   18.25211483440283   17.36881551179356
H         1.49129434371428   16.70111253065698   17.51562679777166
H         1.27411595491032   17.67668509475060   16.06609022071139
C         8.03203550914861   16.84523236631075   17.63897772270997
H         8.08179371087359   17.47714556223172   16.74645027755962
C         8.57417788752950   17.65950300881970   18.81528539789795
H         8.61275059192250   17.06061577432232   19.72109630013535
H         7.94372150777735   18.52646738533469   19.00402587096056
H         9.58108263783930   18.00663291528803   18.59408620190957
C         8.89414070660509   15.60740830416412   17.38096541139806
H         8.49362491976429   15.03820288313392   16.54337458704164
H         8.91489971163814   14.96133290449864   18.25455357690789
H         9.91410331696395   15.90226543921659   17.14506121609221
C         6.94950326525908   17.84393555105675   12.47952735935681
C         8.30431798767153   18.02844214500263   12.19306563348571
C         8.72228567032911   17.85469779989319   10.88155968237660
H         9.76372457909297   17.97607725421271   10.62997143316522
C         7.81827448775247   17.52004517937803    9.89092701457300
H         8.16006021184804   17.39077053686490    8.87465255785876
C         6.48285736504796   17.34312328491026   10.19512276619989
H         5.78964165007280   17.07700092509679    9.41277579980935
C         6.02214376334805   17.49409032415375   11.49645642330531
C         9.29299860691727   18.33993034733186   13.29285525059651
H         8.75083503810265   18.73421081924525   14.15920098225947
C         9.98663989792519   17.04201152554472   13.71763496351136
H        10.54829113509501   16.62364428827885   12.88589467146376
H         9.25247565936466   16.30384355948804   14.03720619718236
H        10.67259600048906   17.23230304699704   14.54015787532375
C        10.31886518818976   19.39562928180239   12.87950373780033
H         9.82312776286101   20.27354981539599   12.47017458626539
H        11.00760298131308   19.00766194277971   12.13421697900593
H        10.90163421546500   19.70116791861053   13.74584958377152
C         4.55872631831406   17.30033845510813   11.81440834624607
H         4.41479265103764   17.35842232484850   12.89783638524286
C         3.73298194242178   18.41757724643811   11.16976323790052
H         3.82848167120915   18.39139433890863   10.08721276885111
H         4.06548815651665   19.39391569616624   11.51917999862977
H         2.68239586399009   18.29881744890345   11.42469898772165
C         4.06797081957628   15.92549701541713   11.36008069631936
H         4.11085509454573   15.82443818901873   10.27974114646250
H         3.03712475881250   15.77688590493555   11.67105605383355
H         4.66854456541452   15.13346251783526   11.80171459795891
C         6.49767721653678   13.13400123603800   13.79574199205566
C         6.36995875731400   11.98465018785621   13.45533933664778
C         6.16819378026848   10.61375776713301   13.00718278747447
H         6.10496420979329    9.92850499543051   13.85705138832241
H         6.99811980887037   10.29534985012754   12.36909830601753
C         4.85621669209786   10.53385583226759   12.19930043625002
C         3.62374008694546   10.79296331098236   13.09294634810831
H         3.70160563858750   11.81639910818044   13.45805154370651
H         2.73132676296684   10.72212307914323   12.46463050849711
C         3.53227421272121    9.82144425233500   14.22577193520723
H         3.36605103650480    8.79111722345386   13.93546320206300
C         3.65931292072332   10.12077076910953   15.51347472707412
C         3.90369420135733   11.51716721046163   16.01527346028801
H         3.03126150681276   12.14439261112183   15.83513931751908
H         4.75266533433176   11.97269888232642   15.50744723730335
H         4.10377497909990   11.50949872499586   17.08376328640718
C         3.55339619516983    9.06675326807464   16.57521151130096
H         3.36100549475984    8.08763773922883   16.14382215186234
H         2.74725451769790    9.30928436690951   17.26800793065500
H         4.47987344092563    9.01935542787650   17.14749891124539
C         4.73179747310329    9.18109135003468   11.52563846446788
C         3.56517339113479    7.99497813570962    9.87735971356087
H         3.24486828501989    7.21325961071119   10.56962010442570
H         4.48380085185404    7.67091775807785    9.38368812224024
H         2.78780551045049    8.19860871083830    9.14533603394282
C         4.91053392456088   11.61315865346202   11.12585682232585
C         6.11750996383059   12.37571027395093    9.27850663083627
H         6.40365990334757   13.31921067569986    9.74890330332979
H         5.20109154398630   12.52865626368978    8.70421236722210
H         6.91661819857334   12.00951468861209    8.63889225661885
N         5.91128131559872   17.51998434038136   15.81912360334799
N         6.50856101581074   17.99588162545665   13.82125377727463
O         3.78462946541043    9.21170127920075   10.57474361386591
O         5.36948816096422    8.19758071039498   11.78802394066138
O         5.91504016699342   11.38322219778579   10.27189480883480
O         4.17051278525022   12.55493200078932   11.03736342209807

