91
CSD_code = LERKAX | q = 0 | S = 0 | Stoichiometry = C46H38N2P2PdS2 | MND = 4
Pd        2.49055975263276    3.44741288308895    3.49252392814955
S         0.84962519059071    3.60304265446579    5.17170940140111
S         4.23288080680406    3.33832363525681    1.90717728683172
P         1.57994697872455    1.40971650292357    3.02717797858901
P         3.25388660004921    5.47428217998422    4.20792361656709
N         3.53217551379002    2.03767488339927    8.45995540852354
N         2.26969011139008    2.04704849417958   -1.95717702842856
C         1.41443471344112    0.36985222283156    4.52232399419725
C         2.46568532438494   -0.41548461551771    4.98630294822935
H         3.36622533881565   -0.52269344940052    4.39993783663824
C         2.36557833692607   -1.07096380859167    6.20030097704583
H         3.19100077327774   -1.67186157449671    6.55223841221254
C         1.22159996997289   -0.94519368675168    6.96883673511183
H         1.15394487346315   -1.44205686894468    7.92486937864587
C         0.16551087947455   -0.17814910710122    6.50669265429218
H        -0.73249192811537   -0.07838306341599    7.09844037308152
C         0.25749790561629    0.47613050581988    5.29275792809613
H        -0.56547710716407    1.08687321908086    4.94970467194600
C         2.45211899822160    0.33345095870341    1.84567461762676
C         1.85900628176900   -0.23017751662861    0.72283490802278
H         0.81095101822693   -0.06816102841548    0.51857952635128
C         2.61962090388589   -0.97727749297633   -0.15844673400850
H         2.15351306067676   -1.40259496252221   -1.03447785975800
C         3.97290546093851   -1.16219232006594    0.06772961246994
H         4.56246626256571   -1.74042365915959   -0.62799922880112
C         4.57491881445191   -0.58349233228049    1.17251776430375
H         5.63565641291023   -0.70246054451593    1.33839419917953
C         3.82154321984009    0.16980126527159    2.05203275670588
H         4.30478606211258    0.67755147507202    2.87970686801363
C        -0.14207357998900    1.51242879178038    2.46433256500839
C        -0.90210353218608    0.36286210741495    2.26193934829693
H        -0.46813845873768   -0.60852076703943    2.45836124765248
C        -2.21167406106579    0.47114408959843    1.83293578984515
H        -2.79915072849954   -0.42087089742631    1.67152429045685
C        -2.77334134924739    1.72027312521798    1.61699406598602
H        -3.79643153658841    1.79879079084725    1.28024580931119
C        -2.03155862513006    2.86624822619420    1.85037084869977
H        -2.47727004902415    3.83943638100307    1.70675951099695
C        -0.71928196543527    2.76347101333816    2.27554591384000
H        -0.14458610361841    3.66305506065128    2.49999402968403
C         1.89148480468247    2.99155526922304    6.40936656187653
C         3.18819685585420    2.52795047831652    6.14699892565501
H         3.58868077716125    2.51206856808540    5.11547076449676
C         3.94921825439248    2.06980404705117    7.20469377254723
H         4.95623444611238    1.70476987422197    7.04092575753968
C         2.30261659785056    2.46925863032332    8.70330058279275
H         1.99227065046361    2.42624760785557    9.73955790425007
C         1.44861855734599    2.94927139064606    7.73373593427181
H         0.45602966106164    3.29374292787040    7.97825117809715
C         3.46979262721007    2.87479981033558    0.42686869360776
C         2.09763196778464    3.02050260441587    0.21368622569673
H         1.47060892414792    3.47386150715740    0.97892811570371
C         1.55848888968003    2.58902860348008   -0.98108701661498
H         0.49499667470872    2.67830191218694   -1.16916052447427
C         3.57746914579854    1.93658852398660   -1.76505726594176
H         4.13062223551678    1.49760418221869   -2.58579933885386
C         4.22695708737473    2.32994657775965   -0.61409256639164
H         5.29308388245019    2.21061207880966   -0.50072414257213
C         5.01163488415331    5.81956163611747    3.89725287105545
C         5.48449819182629    7.03190148423020    3.41423927062374
H         4.79510899282652    7.82907200758313    3.17549157730731
C         6.84370697397274    7.21134926653187    3.22392547607401
H         7.20997762456562    8.15449925184000    2.84519296470273
C         7.73162849458831    6.18835673713433    3.51029118001586
H         8.79067695264157    6.33483069173241    3.35748127886033
C         7.26143782811176    4.97145413289466    3.97774051611134
H         7.95147271227580    4.16697844995674    4.18553119449636
C         5.90601594776432    4.78522121653936    4.16587127526289
H         5.52628408854698    3.82466965052632    4.50156723141402
C         3.08249226233769    5.85866519722819    5.97913926430692
C         4.10484560835374    5.56875625629614    6.87708328255188
H         5.05917207471091    5.21178073047239    6.51527053793038
C         3.90215131956783    5.73397531248440    8.23518153315837
H         4.69686837589565    5.49813656291904    8.92695872683348
C         2.67993955305221    6.18217986417268    8.70647088577072
H         2.52019375696007    6.29748089361763    9.76813162144177
C         1.66060118146085    6.47729764024836    7.81581564700515
H         0.70510562409920    6.82491690949765    8.18044468783833
C         1.85513969220028    6.31249707582013    6.45775153272158
H         1.05166692025158    6.51960182962267    5.76408440611612
C         2.33229779825070    6.79878141997775    3.38539708877399
C         2.32944539146757    8.11822681270953    3.83042991543194
H         2.88324529619971    8.38878255840272    4.71957203487025
C         1.60326028957945    9.07014596056628    3.13869569113082
H         1.59901383092680   10.09461188033535    3.48151409873481
C         0.87943811932985    8.71499634447066    2.01022416275092
H         0.31378981968789    9.46511754706218    1.47763154907114
C         0.87537730051045    7.40216195523243    1.56794349606004
H         0.30879985946682    7.12625075349906    0.69074194244713
C         1.60009205911061    6.44668969610301    2.25653350995675
H         1.61566859144995    5.40562491057281    1.92418963696247

