52
CSD_code = LERLEC | q = 0 | S = 0 | Stoichiometry = C21H26ClNO2Ru | MND = 9
Ru        3.00356185678331    2.59223355922390   -9.16192341233746
Cl        0.98364856976371    3.44783575435473   -8.35954085510630
O         1.87680552545821    1.07596682275343  -10.00246142225553
N         2.95431469267912    1.52941965962086   -7.37870289512077
C         1.17435101861766    0.18269847139883   -9.41178434763005
O         2.06176821928874    0.19026843885736   -5.83503942703580
C         0.31147525817228   -0.61378083701926  -10.20956982528490
H         0.29285516977221   -0.40263370894358  -11.26803350249755
C        -0.48114846031654   -1.58574031706866   -9.66415325054841
H        -1.13869773677231   -2.15877143287031  -10.30237776931704
C        -0.45614323111531   -1.83780652386353   -8.29036656639623
H        -1.09113209344628   -2.60017573437625   -7.86666831227856
C         0.38047268288773   -1.10551182295429   -7.48944784156195
H         0.41599179588160   -1.28616009706136   -6.42646846214496
C         1.21313021904776   -0.10285274943485   -8.01687807632901
C         2.09179753609693    0.59140833693554   -7.11763398278494
C         2.96889067085045    0.98608000272643   -5.09623811728316
H         3.70942359907713    0.32709994850938   -4.63238243640699
H         2.41519396957026    1.51272195630975   -4.31390807223312
C         3.59695358929164    1.95111315544139   -6.12895424362855
C         5.11347948579705    1.75881086762671   -6.19264396357390
H         5.35080701455188    0.75241855342904   -6.53175325325506
H         5.54055385455622    1.90966399204260   -5.20377108895895
H         5.56025953959657    2.47486147979269   -6.87333306274367
C         3.23451105049371    3.40372615062133   -5.81695150291887
H         3.60320542321005    4.06054523423365   -6.60140055562265
H         3.67037755519602    3.70016637174466   -4.86569286298258
H         2.15302516814326    3.51479384616618   -5.77664103838674
C         3.30814746752813    6.05762653401047   -9.05025345784471
H         2.30844540965024    5.91826797446770   -8.63190982685996
H         3.24046682359406    6.80121066751895   -9.84325787297125
H         3.96635926818632    6.42944141006176   -8.26779161716399
C         3.79180551218299    4.74970649227476   -9.59606914307307
C         4.87186967670209    4.05971538063105   -9.03163446380097
H         5.43559260115561    4.51346933587159   -8.22271229068448
C         5.29251121592338    2.80868999028966   -9.56242453865992
H         6.16639978006858    2.32733353966380   -9.13864051820864
C         4.69326334841372    2.26460835724318  -10.70701089973202
C         3.61465043591307    2.98498055942239  -11.29163697169905
H         3.15779078106185    2.60371514546384  -12.19900207213220
C         3.16092645702314    4.18794655639931  -10.74605825670735
H         2.36434746318855    4.74090694683578  -11.23197695830104
C         5.18551732862605    0.97622856543373  -11.32041044127771
H         4.50599793363135    0.71056784749714  -12.13725334998175
C         5.15005128956162   -0.15718778805766  -10.29214641922687
H         5.89768061831087   -0.00617465870445   -9.51645376469794
H         5.34705293784329   -1.11088710488737  -10.77594467208780
H         4.16519018148692   -0.19875815880290   -9.82574429479069
C         6.59185277113818    1.15702862205210  -11.89931765768091
H         6.60242365364792    1.95635554569702  -12.63763226033077
H         6.91622324920796    0.23799749102274  -12.38125101219143
H         7.30550185282210    1.40321137039669  -11.11594709328539

