74
CSD_code = LERQUV | q = 0 | S = 0 | Stoichiometry = C25H41Cl2N4PPd | MND = 4
Pd       11.60435802387577   14.70392833396769    3.21781547635386
P        10.48943207123549   16.57114436085149    2.70396648102779
Cl       11.09940635297628   15.02803392587451    5.38074831716478
Cl       12.23209870068176   12.55030726567312    3.67376392662677
N         9.86564368094758   16.32362333034464    1.08936913809836
N        12.28928028219577   14.52691643402412    1.32943777409996
N         9.01919549728241   16.98172410692376    3.42803210351792
N        11.42911443632194   17.94579275231569    2.55269187279159
C         8.76694744951464   16.90744177522985    0.53859811783270
H         8.10716266062448   17.50363021133937    1.13777568914861
C         8.67932086890399   16.57638372432550   -0.78982051435050
H         7.91270087040100   16.88449060444521   -1.47296351300164
C         9.77924221372016   15.76246031514309   -1.07871785398075
H        10.02149746312694   15.32045404370249   -2.02551688445305
C        10.50130117834734   15.60300723389073    0.09803046339619
C        11.70115571749361   14.85146995363143    0.23215360365872
H        12.15600708678264   14.56998891394404   -0.72060935614834
C        13.53225659077541   13.87896615098498    1.30078206794230
C        13.84173273556798   12.88989549633003    0.37289436220869
H        13.09437103063932   12.55904263473307   -0.33402121866488
C        15.07907315179530   12.26235801088894    0.40597028458436
C        16.00818404435475   12.64887343510129    1.36139747215900
H        16.96817336164953   12.15383226687584    1.39494550703186
C        15.71815512560246   13.63465654990461    2.29686161052260
C        14.47638199398660   14.24672908236930    2.26089816611508
H        14.22481085086759   15.00798185306398    3.00612147034992
C        15.38143244134408   11.15802712814112   -0.56039337991104
H        16.44864834810155   10.95572693244832   -0.60002919956729
H        15.03155342503830   11.40965841185080   -1.55985843225370
H        14.87189899805651   10.24695359713789   -0.24712183865899
C        16.71035553438560   14.03200318039369    3.34610620697788
H        17.04626509062613   15.05641440045743    3.18418933470517
H        17.57739657232471   13.37728628746917    3.33165292143594
H        16.24922202741026   13.98112652021015    4.33065756483372
C        10.96214682677047   19.05897471198457    1.72192659241228
H         9.88181842538079   18.89629563518134    1.64155484481952
C        11.53234261685053   19.03190548781943    0.29792858112790
H        12.53506064559919   19.44559146795302    0.26052932884287
H        10.89628272064867   19.62709149043774   -0.35340079633024
H        11.56153419485001   18.01759721302039   -0.09065310576075
C        11.16837627729963   20.44483256774973    2.32927929410449
H        10.77124948469142   20.49940212241237    3.33838061905723
H        10.64221746116242   21.17347733726650    1.71623395707567
H        12.21966174570227   20.71748301967520    2.34347101019634
C        12.74951064748585   17.87236581337411    3.19004322226219
H        12.83263209974769   16.81669716000771    3.52617640244697
C        13.90833597078001   18.13585141149909    2.23226714620726
H        13.80260297485667   17.53458012746186    1.33198815007856
H        14.84085425511414   17.86115457242953    2.71988587675756
H        13.97155028930412   19.18560379604685    1.95898520289622
C        12.87511444547700   18.71360269020825    4.46115477352514
H        12.87228387421665   19.77957626405783    4.25826362873523
H        13.81269364326079   18.46379287975814    4.95213135861034
H        12.06721119454600   18.47213617168937    5.14741005052659
C         9.05247238855260   18.12352589394385    4.35966188553074
H        10.03467843269446   18.57971239462272    4.20801895949453
C         8.96541104198871   17.76319057715543    5.84028646381017
H         7.96962924716487   17.43509518373315    6.12485374295333
H         9.20878932791292   18.64498941132105    6.42899213810720
H         9.68287594015630   16.97873733722767    6.07493549009099
C         8.01407179462231   19.18912964235173    3.98755284591327
H         8.01192536966167   19.37147303385434    2.91585824388258
H         8.26631017520151   20.12039467637561    4.49004343022509
H         7.01107122786214   18.90957515312455    4.29084059155626
C         8.14302253414053   15.84619286855093    3.81472596343578
H         8.38779482894397   15.55781390145588    4.84312283328408
C         8.31083487368516   14.58860484606386    2.95603515717606
H         8.04278980448831   14.76900892193312    1.91689131828890
H         7.63657931359532   13.82963875515716    3.35009296707867
H         9.32875617248904   14.16018095202145    3.01833597392704
C         6.67208051324551   16.26441550199198    3.74102909337079
H         6.40766619274497   16.96252753862023    4.52746289169240
H         6.04278034132668   15.38591393025712    3.85870736734631
H         6.45070480873914   16.71573831624681    2.77688876362464

