63
CSD_code = LERRAD | q = 0 | S = 0 | Stoichiometry = C28H30N4Pd | MND = 4
Pd        6.71733148890676    0.00007258381555    0.00019080844633
N         5.55898697525462   -0.39314974710008    1.62529292139003
C         5.28068259957430   -1.33103208187421    2.52910242015362
H         5.82530235210731   -2.25603188210313    2.58804623955452
C         4.22493592101311   -0.92446987315721    3.35238585516313
H         3.80548580814376   -1.49279277795397    4.16008981177796
C         3.84413858895488    0.33477595960643    2.92754738206951
H         3.06659191262236    0.95750896898397    3.32659725284251
C         4.68785314993550    0.65260481967193    1.85120273091687
C         4.87787469184521    1.80909944665198    1.08130732264152
H         4.31491351533164    2.71880095260049    1.28800899153228
N         5.79973764889748    1.78911446070866    0.16766687722719
C         6.20031038654462    2.95350425389186   -0.50221556443431
C         7.42542088002467    3.52693002120829   -0.13905099172696
C         7.84895680652635    4.66807265720982   -0.80113209985802
H         8.79372419752435    5.11549360214539   -0.52681612414236
C         7.08921219655867    5.24023336604345   -1.81187268921924
C         5.89100502535468    4.63645033030937   -2.17449192405582
H         5.30754503803898    5.06098273165421   -2.97949768475185
C         5.43269508418361    3.49497489747440   -1.53732305650879
C         8.24645808714829    2.87956204805716    0.93652843831690
H         9.23984161254365    3.31870663555633    0.98067659366003
H         8.34245941184001    1.79152946940727    0.74251653427000
H         7.76646402805877    3.00010801641418    1.90966778065457
C         7.55061373759897    6.47594102925071   -2.52390925544839
H         7.65331617804073    6.28311191670125   -3.59112053232023
H         8.50944125927744    6.81249935276515   -2.13845880811693
H         6.82460999265856    7.27878055884818   -2.40000657478060
C         4.17388644446801    2.80137539769462   -1.96520487299776
H         3.35891225644092    3.00477936999638   -1.27023829309242
H         4.33566994767166    1.72060000738258   -1.98414758869000
H         3.86977441040590    3.13307835753231   -2.95473975182340
N         7.87590476850390    0.39332383618307   -1.62476383718463
C         8.15428260608793    1.33119261086254   -2.52858686654928
H         7.60950431230830    2.25614049089297   -2.58774516913443
C         9.21021892162192    0.92467097349414   -3.35164997219029
H         9.62973539374444    1.49297202445331   -4.15934203761948
C         9.59092127020648   -0.33458057858424   -2.92677463375351
H        10.36848349271319   -0.95731409505418   -3.32573210053431
C         8.74697809428342   -0.65245062800551   -1.85062654903097
C         8.55673618013013   -1.80900303430253   -1.08087503272174
H         9.11973728304405   -2.71870571871872   -1.28750946592620
N         7.63474794051311   -1.78902654852917   -0.16737544188729
C         7.23386028917989   -2.95345395141594    0.50224698688695
C         6.00853919014633   -3.52637721480170    0.13896162886413
C         5.58463371813503   -4.66756492214366    0.80071978723077
H         4.63973703653866   -5.11461701112001    0.52625631463754
C         6.34419479768913   -5.24026517698430    1.81129390274887
C         7.54261080560330   -4.63698353705171    2.17404833231288
H         8.12594585732954   -5.06192724506854    2.97893384253892
C         8.00132822819719   -3.49550635314290    1.53716346843221
C         5.18770477521981   -2.87852946055315   -0.93648863669380
H         4.19428197342928   -3.31755821039261   -0.98091074434130
H         5.09177180918689   -1.79055122690752   -0.74210446228995
H         5.66780734440281   -2.99877668594534   -1.90961381607648
C         5.88244591938176   -6.47606505040824    2.52294497654224
H         5.77986678044124   -6.28357340734090    3.59022705887030
H         4.92349770359340   -6.81220725282307    2.13743420940735
H         6.60820683419605   -7.27907724514731    2.39872021934216
C         9.26046297440434   -2.80261463915943    1.96521837105523
H        10.07544774730380   -3.00658817868210    1.27041115050343
H         9.09936082957810   -1.72173806022129    1.98407906258994
H         9.56419348939190   -3.13445935277788    2.95483730531933

