37
CSD_code = LERROR | q = 0 | S = 0 | Stoichiometry = C10H15N7NiO4 | MND = 6
Ni        3.03697393295742    5.35072000251447    4.45241558809640
O         2.71222264925124    5.10440791169938    2.44491636750100
C         1.48230881048411    5.01199006540193    2.09376103433578
O         1.08114523084736    4.85959972085869    0.95617034992822
C         0.55007839547436    5.15459784665446    3.29641724892029
N         1.26254220251745    5.36159859683410    4.39733345171443
C         0.65870556668613    5.55412631149165    5.54818292869436
C        -0.75647578892540    5.55808877138358    5.65954928851090
N        -1.48328877585829    5.34893772918181    4.54993532260660
C        -0.86520423536060    5.14610447515347    3.40587064140850
C        -1.70163938479853    4.89119695560028    2.19951628606429
H        -2.05483614055415    3.86090923782677    2.22291979466270
H        -1.11379303437765    5.03535896067612    1.29715999743919
H        -2.57218404669953    5.54132761168829    2.20994864720841
N        -1.28938904632307    5.76869481485251    6.85821502372257
C        -0.44632399536779    5.95799843746166    7.87604722152727
N         0.89762043542415    5.96973356321071    7.87246381611216
C         1.50292023401058    5.77262506848791    6.70880702791313
O         2.75154798307067    5.75984611066568    6.51547163210610
N        -1.01621579012667    6.16071859544044    9.07574278086476
O         3.44153808847125    7.61110327735445    3.66731368223071
H         2.69524869785544    8.15470841962602    3.93605825338543
H         3.29561989422289    7.34726122942174    2.74807105642567
N         3.42104842475428    3.03057033416523    4.73943001545635
C         4.83460993026294    2.93769177411430    5.10017533492080
C         5.60015685801971    3.99885754911908    4.30701090960187
N         4.99960775044385    5.30547025928664    4.57422218486662
H         5.40832485091403    6.02128073707758    3.97613494795574
H         5.16224295300854    5.57603062274981    5.54609952851792
H         6.66426729235627    3.97303540364388    4.57752510043205
H         5.49895587677007    3.79258154622222    3.23827299933370
H         5.26287796750015    1.94450783190345    4.90265335654195
H         4.92404849136452    3.15272156476359    6.16852455305015
H         2.84401612438800    2.50581580563495    5.38845206408805
H         3.27371592707997    2.65852814071701    3.80291560817609
H        -0.42607212519063    6.33478868639629    9.86787594453856
H        -2.01662220455040    6.19126603072142    9.14152001114127

