40
CSD_code = LERSOS | q = 0 | S = 0 | Stoichiometry = C18H14Cl2N4OZn | MND = 5
Zn        0.75837339888730    5.83573076403142    2.34033177834290
Cl        2.53039560769474    7.05952929637400    2.02758554504534
Cl       -1.30216201074518    6.44458723499599    3.11096080394367
O         1.17658081750282    4.65975284854988    4.22287681168511
N        -0.47905246250539    3.35930683956324    3.42077322915157
H        -1.32637210625688    2.82296790771163    3.60006385158461
N        -0.25391802550955    3.86806279911825    2.20666162028230
N         0.29659799098159    5.39693583371670    0.20354079251103
N        -0.58978633136952    2.60690875591176    8.41249967937576
C         0.26746039571583    3.87772458741947    4.44118519699189
C        -1.04246413119708    3.72476228522550    1.21020966809371
C        -0.66640674906454    4.48805698879095    0.01899393473207
C        -1.30229179401857    4.33825056083303   -1.21138416845906
H        -2.09741118982650    3.61899025820321   -1.32870954073518
C        -0.89580233617071    5.13350288787566   -2.27035611035677
H        -1.37134567755959    5.03813533161935   -3.23515011359818
C         0.12266541755163    6.05189409413402   -2.07086943424822
H         0.46685420306036    6.68710989578520   -2.87086289900084
C         0.68521893979573    6.15296962075170   -0.80503859659905
H         1.47060293447266    6.86175641838605   -0.58034470662859
C        -0.07027476539330    3.40951030126597    5.80665594665978
C         0.92772158039978    3.44495381112412    6.77943417322231
H         1.91425445173160    3.79369690730889    6.51941559222536
C         0.61297496848515    3.02786413693613    8.06328863038227
H         1.35427989468476    3.03355800448332    8.85065749835913
C        -1.54094060893231    2.59503216921885    7.49705002612703
H        -2.51208312991522    2.26013222499646    7.83634509548786
C        -1.34335944256042    2.98266985726094    6.17935771254291
H        -2.17482486090153    2.98537593711945    5.49112006443744
C        -2.31832002671853    2.98202572454915    1.27831333406727
C        -3.32043546919477    3.48228294616236    2.10930053546624
H        -3.15083399982737    4.41150413880049    2.63693243608014
C        -4.52535711032414    2.80996254942835    2.21286562444170
H        -5.30383788093820    3.20426071664038    2.84821695518212
C        -4.73211717528147    1.63783704077403    1.50340206411106
H        -5.67254272661884    1.11454861957262    1.58745884208524
C        -3.73382264441032    1.13661636891989    0.68374439413200
H        -3.89444013096635    0.22262002070752    0.13195700618105
C        -2.52757656783912    1.80496233987553    0.56737441629060
H        -1.74170124705810    1.40995097601227   -0.06035768958451

