50
CSD_code = LERSEG | q = 0 | S = 0 | Stoichiometry = C14H22CdN6O6S | MND = 7
Cd        6.52431993687066    1.79391338665247    3.41448580724806
N         3.88088090921600    0.74093681751006    1.94999514493283
N         5.18239508935526    0.49621418862641    2.18078776345633
N         6.36815949889191    4.88454341041308    4.46709149707361
N         7.03972096328241    3.71794814181641    4.44469661288571
S         3.76113360307984    3.06549063979983    4.58150811923133
N         6.49714169248057   -0.05358169803847    5.07290271938679
O         7.54169925051177    0.27332486646960    4.49261528919567
O         5.51951051813378    0.70662122205167    4.98155761972629
O         6.43241305279829   -1.07172778117262    5.70781633416222
N         7.46624372476199    2.64266991965357    1.18918472357320
O         8.08133234219492    1.88079619666387    1.94629813106998
O         6.35034674246869    3.06016556685710    1.56344459833093
O         7.91847993339500    2.98255323119590    0.13109793222001
C         3.22659989611010   -0.39389111632695    1.61727614545949
C         4.15799769650606   -1.40925360437851    1.63787304717287
H         3.99170067307748   -2.44501903650380    1.42494048063387
C         5.37251634184350   -0.80593400160389    1.99393693672514
C         1.78154495427166   -0.43432665921832    1.27705877672270
H         1.57618727232472    0.15867850552140    0.38515223539277
H         1.17188899920883   -0.04678519819406    2.09179330829622
H         1.48773913648105   -1.46133259846947    1.08105295263102
C         6.70245889714886   -1.45623337039891    2.12235055092044
H         7.49497601288542   -0.70772049242051    2.15791496499951
H         6.86959996325047   -2.12070144877282    1.27627598180418
H         6.74575701186984   -2.05671147202509    3.03178788985348
C         6.88590836911408    5.72373724017589    5.38956667508156
C         7.94234489008489    5.06283949152810    5.97891756712741
H         8.58597812473907    5.43178002855900    6.75069273695731
C         8.00626833598206    3.81097696375106    5.35311021341590
C         6.36803504008783    7.09385991161099    5.63368900692431
H         5.32628579464279    7.07147382257998    5.95024184284652
H         6.43864893407253    7.70340908590125    4.73261545055569
H         6.95685923253587    7.56597090588346    6.41467271881004
C         8.99242403391260    2.72872273853837    5.59956899474007
H         9.16566763678401    2.15499744607799    4.68870168331171
H         8.62546211119661    2.04647415382024    6.36725749903921
H         9.93022780505908    3.15671682491159    5.94645971545202
C         2.65252908440696    2.43838660069892    3.27722930681706
H         2.19723522484191    1.55556391453570    3.72558328227816
H         1.88187077214257    3.19044180253930    3.11309831199330
C         3.33845045934482    2.07252186592084    1.95733741358583
H         2.60527343021641    2.14181097401561    1.14683223425527
H         4.15764967055163    2.76341538010522    1.74415617646192
C         3.92326492269950    4.83745013738368    4.13181836801555
H         3.14114914907627    5.08929288444318    3.41953538399329
H         3.75675318922587    5.38736555158233    5.05791003849744
C         5.29694765769580    5.17127385707944    3.55040109815627
H         5.47346732446851    4.59183685412280    2.64223778195092
H         5.33145469468649    6.23604394853066    3.29977093661577

