51
CSD_code = LERWEM | q = 0 | S = 0 | Stoichiometry = C20H24N2NiO4 | MND = 6
Ni       -0.12577210943754    7.23801248292532    4.76986993391572
O         0.79229812426518    5.64442221423664    4.26937968348929
O        -1.30533266206969    6.25930909653573    5.90108018584051
N         1.40445338192257    7.53074822181576    6.62879319997608
C         2.70479059175636    7.32474200213529    6.47321829204331
C         3.61190203799994    7.40813652031491    7.51892985217273
C         3.13902044886901    7.72081442037762    8.78317416588287
C         1.78025195386634    7.93646334873582    8.94707194987283
C         0.95324151654355    7.83001008138629    7.83889222793280
C         1.44628727875478    3.37753953248180    4.09141129831256
C         0.55671709034089    4.47326750540768    4.65126150078004
C        -0.44694886605883    4.08861603463632    5.54249267649269
C        -1.31606617600414    5.02261694331117    6.10970443561515
C        -2.37177510202001    4.49814287022440    7.06670220392719
H         3.02346302721132    7.08385573044286    5.46775884610023
H         4.66306024779603    7.23263092009232    7.34724415503633
H         3.81540187505367    7.79460351115541    9.62333549081084
H         1.37014049844556    8.18254331127522    9.91477344164974
H        -0.11423990594768    7.98930780814702    7.91427009775682
H         2.18526121394570    3.81265921815660    3.42438210164636
H         0.84460041703630    2.65580757588184    3.54362382978768
H         1.95104834819333    2.85780997922248    4.90255102156834
H        -0.55366262704519    3.04659128715438    5.79798718635189
H        -2.97380484283084    5.32457282317932    7.43437811548529
H        -1.89543429630284    3.99536156531939    7.90541765722853
H        -3.01214066499354    3.78208762286731    6.55648342276582
O        -1.04384031159556    8.83159820838895    5.27036851695142
O         1.05377891135806    8.21672193996580    3.63865074879004
N        -1.65592869042743    6.94524756644172    2.91089505210142
C        -2.95627602772626    7.15129835564893    3.06636294169583
C        -3.86331339243863    7.06785817776398    2.02059181333812
C        -3.39034180862780    6.75512756554832    0.75639350103856
C        -2.03156091872956    6.53944810091457    0.59260359645917
C        -1.20463124683071    6.64590952528239    1.70084428622236
C        -1.69784563237359   11.09847625245690    5.44833449927725
C        -0.80825074898674   10.00275756221593    4.88850626431661
C         0.19539274455201   10.38741172583130    3.99725077867705
C         1.06449358687398    9.45341217349050    3.43001258875870
C         2.12022190852577    9.97789932871583    2.47304210891330
H        -3.27502892632864    7.39212635991001    4.07180942245237
H        -4.91448728787270    7.24330887818933    2.19220773252090
H        -4.06666554350781    6.68131021028024   -0.08381115705235
H        -1.62137441212878    6.29339822245864   -0.37507216230892
H        -0.13713992337125    6.48671449992048    1.62552780320988
H        -2.43681243787293   10.66335241321480    6.11536862560185
H        -1.09616480792707   11.82021432817044    5.99611786392335
H        -2.20261298920836   11.61819838083699    4.63719210198457
H         0.30210190967967   11.42943743627676    3.74175825480641
H         2.72225398287642    9.15146769016751    2.10536993857885
H         1.64388550169985   10.48067247668619    1.63432066366916
H         2.76058576109744   10.69395999380483    2.98326724363251

