69
CSD_code = LERWAJ | q = 0 | S = 0 | Stoichiometry = C30H26CdCl2N10 | MND = 4
Cd        6.29113114775749    5.13381017670902   10.93980134396317
Cl        4.33520320518593    4.03378317389149   10.27379601975602
N         6.96037027977642    6.72276728487468    9.40021588784333
N         8.04637192330671    8.39548122046966    8.43259395602268
N         8.70878907506903   10.66401738164701    8.61361223788220
N         8.74392781137990   11.72289808062373    7.78267966864520
N         8.46870200843541   12.78591412331168    8.40232264648483
C         4.72924985568367    7.14812110787590    8.32016851460813
H         4.21991160753957    6.31627559151093    8.78508858706985
C         4.10495279909318    7.99221283876448    7.42387795591673
H         3.06433931326489    7.83447541473488    7.18522155798555
C         4.78511254410896    9.04268203829406    6.80289346412363
H         4.25458632283027    9.67095690013935    6.10348304215056
C         6.11994211135302    9.29788647299651    7.05751227154909
H         6.64198691679985   10.11057348703889    6.57549506020245
C         6.74960339775847    8.45534989379524    7.95996182745265
C         6.07250752274226    7.39102714482977    8.58480868244700
C         8.11305110149357    7.33248228668762    9.29044267527614
C         9.36289430832659    6.90369284152219    9.95921716420214
H         9.74228970600600    7.67278504781440   10.63178689865829
H        10.13070743182992    6.68341748247174    9.21780397707030
H         9.16576815436288    5.99620605320788   10.53328776122719
C         9.06888092266511    9.35647279420360    8.13944656121140
H        10.00702409622731    9.02877063645135    8.60256097437612
H         9.20990820240973    9.45592054280997    7.05559572750614
C         8.36443434972374   11.08801078682350    9.86603918150011
C         8.22396456050321   12.49045899503187    9.71123900002734
C         7.90002105818236   13.29980703546248   10.79835418934088
H         7.81197454905275   14.36665232266862   10.67908741896679
C         7.70232937810816   12.67434229195634   12.00581025235564
H         7.44800906919160   13.25964690952961   12.87612278073042
C         7.80601967457467   11.28353588106103   12.14132839860724
H         7.62678712369913   10.83971310933994   13.10845668283876
C         8.13604447288137   10.46336400041053   11.08571124912734
H         8.20247359127073    9.39351842782657   11.21173045462399
Cl        8.24704651564446    4.03377477474436   11.60582583388991
N         5.62189815186462    6.72277483937926   12.47937945684159
N         4.53589071995290    8.39547639092889   13.44701626420697
N         3.87346386291460   10.66401017623259   13.26600430592528
N         3.83831362617099   11.72289034004147   14.09693715720401
N         4.11354631548568   12.78590702151118   13.47729874420537
C         7.85301719479510    7.14812731806087   13.55943084184134
H         8.36235843390395    6.31628717148528   13.09450458662997
C         8.47731168156210    7.99221464823507   14.45572736175109
H         9.51792598682755    7.83447986691938   14.69438133099206
C         7.79714874599515    9.04267770086816   15.07671886079265
H         8.32767291229703    9.67094886821102   15.77613421193283
C         6.46231805977147    9.29787895014496   14.82210274374870
H         5.94027026276280   10.11056004274594   15.30412665881647
C         5.83265941993995    8.45534660691545   13.91964746792780
C         6.50975867947643    7.39103070202535   13.29479248361788
C         4.46921495639987    7.33248402987923   12.58915881166998
C         3.21937196070514    6.90369596570153   11.92038324425648
H         2.83997570314325    7.67278990340662   11.24781587115202
H         2.45155938976169    6.68341757810965   12.66179595089707
H         3.41649834754559    5.99621092179105   11.34630986994047
C         3.51337863670288    9.35646303127112   13.74016797072662
H         2.57523608300638    9.02875830119565   13.27705428455626
H         3.37235291347456    9.45590769039108   14.82401927312224
C         4.21782131269663   11.08800652124869   12.01357916556186
C         4.35827796453633   12.49045593191455   12.16838004194327
C         4.68221475890997   13.29980774951337   11.08126545198468
H         4.77026348575114   14.36665243474145   11.20053608168397
C         4.87991328098953   12.67434569570408    9.87380929849691
H         5.13423625496746   13.25965244661469    9.00349929761161
C         4.77623673878198   11.28353827042643    9.73829054855816
H         4.95547036581053   10.83971817976350    8.77116111850433
C         4.44621728063796   10.46336276206411   10.79390655705598
H         4.37979040422355    9.39351739102427   10.66788478020858

