48
CSD_code = LERXEO | q = 0 | S = 0 | Stoichiometry = C20H21ClN4OZn | MND = 4
Zn        0.45563104806954    3.99601170095443    2.22983223464039
Cl        2.21863287627024    2.82064178489797    2.67036820348893
N         0.71836581948840    5.18166271834898    0.60014565304746
N         1.36585882255522    6.06812790377170    2.52221997384324
N        -0.67240630555096    4.07910415011875    3.96253931857868
N        -2.69375215535133    3.86025551560877    2.88182756176416
H        -2.16364061294415    3.56512124385202    2.06556893478685
H        -3.66263616889928    3.59667530863782    2.92973722822954
O        -0.82969036352880    2.99908641612147    0.98646711178409
C        -0.13678506843295    3.84487750824692   -1.16077321514632
C        -0.80837747998111    2.91728568999693   -0.28987628455244
C        -1.51336620440720    1.85395883626225   -0.92286124230754
H        -2.01486054087558    1.14752704828088   -0.27757110564236
C        -1.54965457746813    1.71210664559124   -2.27808828035920
H        -2.09226972543060    0.88641962672630   -2.71801489384730
C        -0.88994324036602    2.61929480727780   -3.13209489363421
C        -0.20376536104511    3.65425456801987   -2.56097003167358
H         0.31611632689143    4.36550567042023   -3.18991391614614
C        -0.95532159773505    2.42306798593256   -4.61655658469874
H        -0.40461169189206    3.20267382865589   -5.13659990249976
H        -1.99013431634738    2.44088085082738   -4.95762935946041
H        -0.53174470156221    1.45720322268004   -4.89001481986466
C         0.60439869990454    4.93602297775014   -0.66889856202209
H         1.09203188803590    5.57906759122048   -1.40904617100947
C         1.40531250703842    6.20029513531478    1.19108584669094
C         2.06784590712165    7.26557093962497    0.57487133078862
H         2.08027185025898    7.35350931221974   -0.50066346722041
C         2.71596195184863    8.20152186807924    1.36199957573954
C         2.66934277884946    8.03805116200481    2.74788295314487
H         3.16312591795137    8.74354940450004    3.39741244114501
C         1.98419113808860    6.95947740522182    3.27481972441639
H         1.92486711631697    6.80091382372088    4.34298372195725
C         3.45696218718849    9.35075442709406    0.75828889333712
H         3.14137402301210   10.28720062862480    1.21502072721130
H         3.29138969235631    9.40599313291547   -0.31433469130141
H         4.52526863697366    9.23700246720143    0.93969109556799
C         0.02140204052143    4.23810174489592    5.09352330540469
H         1.09407924235027    4.27410253894612    4.97408495890311
C        -0.56352103188892    4.33024639961490    6.33094203411986
H         0.04274068567265    4.45277530543193    7.21369650084286
C        -1.95996842711028    4.25478229084199    6.43355062397073
C        -2.67458741790513    4.08047467371816    5.27151940420865
H        -3.75197127160931    4.00693728256108    5.28898450505702
C        -2.00796343238864    3.98866687471429    4.03393254999093
C        -2.62766288064642    4.34959750197521    7.76666837361770
H        -2.35227806341102    5.28117918447273    8.25845950761926
H        -2.30078874081154    3.53008540125837    8.40510672967369
H        -3.70916977916422    4.30837749483913    7.66917639780959

