63
CSD_code = LESHAT | q = 0 | S = 0 | Stoichiometry = C26H32N2NiO2 | MND = 4
Ni        0.00001670218577    0.00000446440738    0.00000274217618
O         0.40477539923905   -0.80499153492181   -1.59759490117828
N        -0.26102663536134    1.68015967681883   -1.03370064775627
C         0.63341644099479   -0.54855467893976   -3.95305507500766
C         0.59670984056996   -1.93201343096975   -4.11427894079489
C         0.86301462981816   -2.50913165981607   -5.34066495518722
C         1.17436694411369   -1.71146715084437   -6.42884946732901
C         1.22350082114878   -0.33511931228812   -6.27784558050105
C         0.95890340744965    0.24425857811908   -5.05115162778345
C         0.33519711820430    0.02201478244551   -2.62364077525260
C        -0.01889062332407    1.30518595128637   -2.41732037922340
C         0.73769135247297    2.66323384802218   -0.56119341159600
C         0.59549415792660    4.03122287255063   -1.23073637252614
C        -0.80630886147674    4.58241638934757   -0.99385757564263
C        -1.83463282576521    3.58067052785712   -1.50759003794444
C        -1.62206503833206    2.21921329190590   -0.84177559022981
H         0.35323358558307   -2.54284779243912   -3.25814888768084
H         0.82822348641869   -3.58375273142662   -5.45039585228230
H         1.38288286977418   -2.15909918287435   -7.38970776400506
H         1.47482713813068    0.29013378615602   -7.12284259614225
H         1.01883124422690    1.31635347314567   -4.94463190685374
H        -0.15169983455599    2.04831925257044   -3.18389696410376
H         1.73342118918549    2.25069506656673   -0.75500999246701
H         0.60682671900028    2.77857715393438    0.51893401801634
H         0.78613378664421    3.94823719279770   -2.30191376763853
H         1.34570699178232    4.70466425533307   -0.81226572902938
H        -0.95770805367936    4.74098883293587    0.07640200434835
H        -0.92759382456821    5.54390548921933   -1.49722438612504
H        -2.84586563189001    3.92347844889337   -1.28130994071274
H        -1.75287964344304    3.48915660205319   -2.59187715893457
H        -1.79120253041204    2.31622120396095    0.23482641288951
H        -2.33133050025406    1.48981317712747   -1.24507149962117
O        -0.40469033629365    0.80501095033906    1.59760873422292
C        -0.33510488806547   -0.02199550402821    2.62365411226167
C        -0.63321291786286    0.54859737691773    3.95308342557182
C        -0.59641453873238    1.93205482247749    4.11429977466190
C        -0.86261294422732    2.50919379162435    5.34069907731143
C        -1.17394684977314    1.71155199464273    6.42890542425907
C        -1.22316531782705    0.33520602232899    6.27791135099552
C        -0.95867473710901   -0.24419241247043    5.05120426635435
H        -1.01866556616300   -1.31628474264945    4.94469440422144
H        -1.47447424605693   -0.29002927894175    7.12292662312261
H        -1.38238165751114    2.15920032277800    7.38977361870688
H        -0.82775293080867    3.58381342372643    5.45042335350994
H        -0.35295050003939    2.54287156813168    3.25815371899795
C         0.01889286102698   -1.30518930921780    2.41731886439514
N         0.26095726325374   -1.68017609621713    1.03369027513846
C        -0.73786883324227   -2.66314659609649    0.56119487007165
C        -0.59579446111370   -4.03115607964551    1.23072168768973
C         0.80594894419955   -4.58248674706220    0.99380930338879
C         1.83438284761269   -3.58084757823134    1.50752974943596
C         1.62193755421998   -2.21936329418186    0.84173158703406
H         1.79104259856457   -2.31637942543681   -0.23487457050583
H         2.33128316993335   -1.49003638445594    1.24501797174483
H         2.84557721557630   -3.92375380254253    1.28122697623183
H         1.75265933374491   -3.48933651575222    2.59181934009881
H         0.95730940402522   -4.74106512914985   -0.07645493985676
H         0.92714882630928   -5.54399226397210    1.49716505321049
H        -0.78640573229197   -3.94816030121104    2.30190347399297
H        -1.34608232867709   -4.70451916359552    0.81225944187257
H        -1.73355422374309   -2.25051215655322    0.75503733695472
H        -0.60703959793482   -2.77849190343928   -0.51893692121059
H         0.15168276719924   -2.04833243105053    3.18388922223464

