45
CSD_code = LESLEB | q = 0 | S = 0 | Stoichiometry = C22H16N6Ru | MND = 6
Ru        4.02743472311610    1.98593746924317    9.82513800113346
N         2.28804830865547    1.94992820961808   10.77650095640856
N         2.77115143526930    1.78508298156865    8.25785551933791
C         2.11328950368049    2.04027894264159   12.10395443430439
H         3.01736531403105    2.10877118299097   12.69722374626887
C         0.87335279671150    2.05994511595912   12.70337704457846
H         0.79876981868244    2.13906753066756   13.77570664445691
C        -0.26843001346054    1.98662136092842   11.90866060165613
H        -1.25329075453265    2.00856465256529   12.34757493183437
C        -0.10651041704964    1.89046256565582   10.54272161551676
H        -0.96882020277175    1.83844423789465    9.89807431506454
C         1.17652417462934    1.86980632579594    9.99327366067023
C         1.45161905745478    1.76055160261430    8.57012541116501
C         0.47453347170672    1.62415335637600    7.58183898815930
H        -0.56894490951034    1.60841370484869    7.85073973689955
C         0.84956483887364    1.51336297778434    6.25915742659914
H         0.10821571147039    1.41157801563527    5.48223541750549
C         2.20729149017531    1.53994227669673    5.95006181784046
H         2.54763247038985    1.45995571844437    4.93009739634402
C         3.11951939165325    1.67823422885674    6.97337488700656
H         4.18120970102984    1.71281728106544    6.75553061307860
N         4.43291955399307    0.00922594402027    9.88192232123915
N         5.74272705764944    1.95412253790489    8.82978024618363
C         3.66937465475679   -0.93966469356167   10.42904194707205
H         2.74617279489997   -0.61043202136956   10.89288392018513
C         4.00716678121460   -2.27544165913295   10.43258608882431
H         3.35101464571937   -2.99732470282710   10.89183879328711
C         5.20625861448215   -2.66692475925106    9.84220739117987
H         5.50429043839167   -3.70356911948255    9.83222661002828
C         6.00584184249479   -1.69754595177318    9.27350941692119
H         6.93987272458528   -1.97079583734059    8.81057757044902
C         5.60227770904107   -0.36105102286475    9.30330064641281
C         6.35221778129773    0.74068795389031    8.72293419353574
C         7.59291371170537    0.59954650405895    8.09910396567309
H         8.05862839953303   -0.37079438407802    8.04089689677580
C         8.22495866614963    1.70354156206011    7.56711022776335
H         9.18621202559207    1.61122434402023    7.08695504341215
C         7.59072681374979    2.93936757613407    7.67197109656334
H         8.04552419857695    3.83188252470949    7.27411338888153
C         6.36910458794279    3.01777031222582    8.30341920113270
H         5.86004830927270    3.96825431160371    8.41051636519655
C         3.79968096070460    3.95443307761579    9.70098976062177
N         3.61067887202456    5.07263387907995    9.50188253007560
C         5.11276348781950    2.21127857394332   11.47239057212920
N         5.73749945820559    2.20075531255968   12.43951864062320

