125
CSD_code = LESNAY | q = 0 | S = 0 | Stoichiometry = C54H54FeN4O10P2 | MND = 6
Fe        0.00000175314737   -0.00003617831491   -0.00005885859771
P         0.44733086624600   -0.42969273092113    2.08531667576522
O         8.23723434948319   -3.46311067184486   -1.49297773081294
O         3.60259607596445    8.30464675756173   -0.01818394886673
O        -0.23982227661531   -1.82349530051485    2.48737434212452
O         0.08045157481770    0.54923872708009    3.35846190323680
O         1.94723044120748   -0.74758472346697    2.58632951210373
N         1.84000595907916    0.73918257319391   -0.22829835919955
N         0.70418302566633   -1.84074685074008   -0.31854549674628
C         1.37076175084385    3.12726953744412    0.07597308075410
C         2.20455200484741    2.04820780076011   -0.19086283434374
C         3.59787719566242    2.18818607702679   -0.50046211552259
C         4.07728492072975    0.93957226591030   -0.70443225840154
C         2.97306972049181    0.04253787070166   -0.51708013417988
C         3.08542366796410   -1.33922589641695   -0.62650869201637
C         2.00092485430629   -2.20047101806446   -0.51991732472237
C         2.11288205995664   -3.62551882482497   -0.64034926088048
C         0.86117798491556   -4.12176514641766   -0.52144990058476
C        -0.00583633468173   -3.00039653887222   -0.29781056562974
C         1.96583809896441    4.48004875641196    0.08071875725762
C         1.61166999720038    5.41548616621082   -0.88973107914799
C         2.17407092895584    6.67291496708004   -0.89511285029297
C         3.10814813393545    7.03585139591274    0.07670173961941
C         3.46602142376831    6.10979857623387    1.04907349675607
C         2.89833457595218    4.84643508378218    1.04161857226675
C         4.55458185606902    8.72520777366819    0.92643084774187
C         4.42502563084083   -1.91136905974744   -0.87945048290671
C         5.43255618224303   -1.80972185767657    0.07786727394495
C         6.68332940918199   -2.33772031609805   -0.15522295283557
C         6.96764677709659   -2.98091114365319   -1.36082703604479
C         5.96918931729803   -3.08547428369943   -2.32196358457369
C         4.71367685820415   -2.55585645491743   -2.07489241028786
C         8.58301769891135   -4.12291120293861   -2.68498653106965
C        -0.02368448465605   -2.44457757973683    3.74758664142619
C        -1.19552422129330    1.14012058106223    3.48902509420123
C         2.91966251607232    0.25742196390906    2.81062075863701
H         4.12446567146250    3.12008956765920   -0.56787668770009
H         5.07379887890477    0.64252384282692   -0.96876151811294
H         3.03009179781543   -4.16081432802395   -0.79143728988721
H         0.54505559125810   -5.14545568787803   -0.57348794442215
H         0.89507191728062    5.13845689372059   -1.64848697771036
H         1.90899823250569    7.40084025295009   -1.64595198424130
H         4.18324932947405    6.35637500014291    1.81648471655843
H         3.18173493808439    4.13336914578791    1.80264192465631
H         5.45982634957865    8.11003504174182    0.88811869807479
H         4.14825341984924    8.70952855428853    1.94332561561995
H         4.80568444039374    9.74991347690308    0.65646642014695
H         5.22101080720832   -1.31979490200065    1.01665358488280
H         7.46624723898644   -2.26698780291468    0.58353061167735
H         6.15357987391097   -3.57380750661343   -3.26618528233656
H         3.94592859932341   -2.63642367956774   -2.83120399768783
H         7.97264110243993   -5.01846753327724   -2.84180850673545
H         9.62558921426495   -4.41517280728966   -2.56891991049329
H         8.48813423658970   -3.46259252096747   -3.55345712584619
H         0.08885287187056   -1.70056110296901    4.53830791974920
H         0.87294334443144   -3.06444252634151    3.71028385251887
H        -0.89701607527734   -3.06670916969677    3.94573912178839
H        -1.42150187614319    1.18512814847011    4.55665179323682
H        -1.96026893869895    0.55242825032555    2.97958394753313
H        -1.18478468408067    2.15057406369375    3.07675320150482
H         3.44869048029122    0.49765584855519    1.88840395446955
H         2.46265915852940    1.16061747293977    3.21421365503562
H         3.62310645341359   -0.14973395527480    3.53897568690618
P        -0.44735333159183    0.42970975001830   -2.08539584980791
N        -1.83997065355736   -0.73924957542245    0.22825100396314
N        -0.70416454461854    1.84069349233885    0.31850810586182
C         0.00589240681689    3.00033510309453    0.29789743384232
C        -1.37068351411733   -3.12732005329089   -0.07579777495403
O         0.23973085069688    1.82355404335895   -2.48741300701067
O        -0.08044955519780   -0.54916690792013   -3.35856974769627
O        -1.94727347194958    0.74756110290180   -2.58635834481421
C        -2.20451051311329   -2.04826953170718    0.19093507845677
C        -2.97304656575916   -0.04256673724449    0.51688737650540
C        -2.00091922823308    2.20044817171246    0.51973973119263
C        -0.86112280913564    4.12171334642305    0.52149048638659
C        -1.96569118290185   -4.48011224276143   -0.08025822728448
C         0.02351212462011    2.44475855115569   -3.74750003068259
C         1.19554210041919   -1.13996233099099   -3.48922885694837
C        -2.91969749332487   -0.25740045437542   -2.81079134354012
C        -3.59785360854504   -2.18821842028694    0.50046322182656
C        -4.07728057802495   -0.93958030033748    0.70425429402370
C        -3.08542556028382    1.33920580109744    0.62621486554543
C        -2.11285185857949    3.62549078181118    0.64020593038119
H        -0.54500236491350    5.14539874097397    0.57361317111939
C        -1.61145112263505   -5.41535140431430    0.89035654733260
C        -2.89823327273432   -4.84673839433580   -1.04102440381651
H        -0.08988335181724    1.70096777771307   -4.53804511778493
H        -0.87251929440294    3.06513563496438   -3.70985314481744
H         0.89700671014653    3.06623055413144   -3.94609613662205
H         1.42139270322991   -1.18502114390387   -4.55686725673892
H         1.96027991863310   -0.55217905160363   -2.97991755354668
H         1.18491826802500   -2.15037903358123   -3.07689807689070
H        -3.44851722634528   -0.49797193282020   -1.88856209321655
H        -2.46273601595272   -1.16040990469276   -3.21480571065558
H        -3.62328567088643    0.15000757786741   -3.53884859261149
H        -4.12443124464228   -3.12012711155184    0.56793499063673
H        -5.07382575727067   -0.64252666365177    0.96848040806753
C        -4.42505421194485    1.91136877446021    0.87895647495428
H        -3.03007001735794    4.16078513798800    0.79120023582471
C        -2.17383748560376   -6.67279572546729    0.89605724772858
H        -0.89479846483969   -5.13815446018889    1.64899518908694
C        -3.46591438421166   -6.11011981118011   -1.04817618271627
H        -3.18171023935376   -4.13386995373569   -1.80220209671172
C        -5.43246244823106    1.80966324112791   -0.07848328961692
C        -4.71385509304050    2.55593011087484    2.07432237893492
C        -3.10798460064572   -7.03596207112314   -0.07561212296282
H        -1.90869937812231   -7.40055639423547    1.64705150656505
H        -4.18319454047974   -6.35689924353925   -1.81549730769180
C        -6.68325720738437    2.33769616764752    0.15440749025598
H        -5.22080029850422    1.31966696356277   -1.01720672521314
C        -5.96939237628560    3.08558498844797    2.32119318974468
H        -3.94620432369295    2.63653658016637    2.83073050027986
O        -3.60242698652391   -8.30474145518258    0.01961229294234
C        -6.96772265651701    2.98097799751894    1.35992959105866
H        -7.46607969623478    2.26692535795055   -0.58444260175966
H        -6.15390272253410    3.57398180764626    3.26535968474265
C        -4.55446631644824   -8.72550861992153   -0.92485208501936
O        -8.23731807496390    3.46321695300243    1.49187259210420
H        -5.45970591614795   -8.11033210992443   -0.88662297213262
H        -4.14819792159264   -8.71005662044189   -1.94177003486283
H        -4.80554605202802   -9.75014562344342   -0.65464131935843
C        -8.58325027878488    4.12311482265836    2.68378605283668
H        -7.97286922896457    5.01866510957386    2.84062942412247
H        -9.62579684321746    4.41540160692313    2.56755101170617
H        -8.48851019486645    3.46285410174839    3.55231873207765

