53
CSD_code = LESPEF | q = 0 | S = 0 | Stoichiometry = C29H17O5PW | MND = 6
W         6.82058951372632    7.01475133556602    0.62320854882088
P         5.65633590946991    6.63694226631452    2.75795915322565
O         4.20182272380750    8.00344858905625   -0.79936698148759
O         6.01215940444528    4.13207002986979   -0.32373256701007
O         8.40771050320274    7.46427375683237   -2.03560530367907
O         9.41443413635142    5.95328647442823    2.03827659193665
O         7.61374924802654    9.87964918822798    1.63410128208969
C         5.33551682009326    4.96331495189956    3.26548639838979
C         6.11393219287777    3.85631533472278    3.11667170977647
C         5.50913722017120    2.76958091533838    3.84472986591108
C         4.38187627823031    3.21103065036497    4.44893874177682
C         4.19410462023302    4.60358414348136    4.09852525409852
C         3.16230441201066    5.42874910948716    4.41975302096661
C         3.03121501325301    6.76930146624922    3.86849155242218
C         1.83203793733492    7.46962261187349    4.05526927833084
C         1.63497109294292    8.72446548674512    3.51648448679063
C         2.63057722533080    9.31991454019523    2.75743545078945
C         3.81542687163191    8.64026589787973    2.54497173969181
C         4.03269546725242    7.37876552064999    3.08915314744955
C         2.10815224683105    4.93622602319109    5.32731655972105
C         1.93464308373429    5.52502071051965    6.57718521039783
C         0.97211101460676    5.04467754483606    7.44582109720863
C         0.16556883590683    3.98204471950837    7.07279891495103
C         0.32845543139667    3.39696928996175    5.82824375682005
C         1.29797776912343    3.86630436763795    4.96044055915657
C         6.60593529646053    7.28562240655477    4.18669344466568
C         6.46879274345439    8.60798564596021    4.59480002964819
C         7.28031808183769    9.11016797424566    5.59592564339489
C         8.23530301543295    8.30249716474168    6.19083609829783
C         8.37598328667951    6.98578286335718    5.78461405267464
C         7.56663801325219    6.47811370988648    4.78514337022114
C         5.15533656343612    7.66574979404587   -0.26913476806782
C         6.31580390778355    5.17376110576040    0.02825114879289
C         7.82437440664417    7.29943855941435   -1.06700242674522
C         8.46990452330869    6.33309659738179    1.52129184754526
C         7.31271739826115    8.84538361998615    1.25280202628439
H         4.59216381391677    9.08342742822344    1.93165545095329
H         7.02510445373860    3.78150438434884    2.54702742017386
H         5.91263534006547    1.77422656977827    3.88638736113599
H         3.70847405847033    2.64272667111951    5.06196427143868
H         1.03871345111143    7.00876306595183    4.62480509130129
H         0.69858037662592    9.23647100445931    3.68013749587570
H         2.47926484136729   10.29778324247752    2.32573610063268
H         2.56857160254091    6.35100703490248    6.86688008616766
H         0.85025094287572    5.50230905106260    8.41637925196645
H        -0.58858856805494    3.61129687700985    7.75066897519876
H        -0.30033193090823    2.57034863373130    5.53232467170929
H         1.42332740129586    3.41735228960013    3.98597338382842
H         5.72802498376647    9.24576806407498    4.13288422829569
H         7.16935806645274   10.13809745075014    5.90863317445739
H         8.87015332096934    8.69942645944006    6.96890232198869
H         9.12022417399294    6.35286172791059    6.24495602289858
H         7.67496146324418    5.44975567898885    4.46790675670437

