68
CSD_code = LESPIJ | q = 0 | S = 0 | Stoichiometry = C32H31BCuN2P | MND = 5
B         3.75707961044913   16.85986927932860    9.67941990391918
H         3.77851581850285   17.06209296761726   11.30008902703378
H         2.60649441842345   16.99310132102330    9.46428123871688
H         4.18675513661396   15.76694503014309    9.58156031725476
H         4.45925530555444   17.72849735198520    9.29194490397213
C         2.44128990625319   19.24467711958226   14.61733096314653
H         1.91498686923294   19.49050327635026   13.70464035286806
C         2.10136278627437   19.85134808802735   15.82419616337177
H         1.30323621264593   20.57796925278450   15.84564973236784
C         2.77397405347953   19.52081002538712   16.98624685983821
C         3.81239351412903   18.56746578787275   16.89205738267968
C         4.08868119042333   18.02015194895141   15.62157301571710
C         5.17106021301404   17.10295809812848   15.45402467028067
C         5.95310330169307   16.71479588203428   16.56276016584381
C         7.03737080275791   15.83908900721449   16.32966095387291
C         7.26767152191103   15.43709387146128   15.02524904495655
H         8.08853696784230   14.77392614360945   14.79778437348928
C         6.43974143263765   15.87710888391252   13.99670184224458
H         6.60886308712866   15.56727621507200   12.97477914103140
C         4.60333720709803   18.13644848312917   17.99395739658565
H         4.38862905444736   18.53531050318086   18.97327280020525
C         5.61737695032397   17.24941349689928   17.83875469942821
H         6.19924867806671   16.94839537266617   18.69633619097033
C         2.41981127653438   20.16047312753977   18.28973439016339
H         1.60067040885217   20.86290916114487   18.15929599049678
H         3.27799129600691   20.69693136450778   18.69284381782241
H         2.11861449849561   19.40794651967515   19.01762534610951
C         7.91357818794989   15.36770658666214   17.44569648852678
H         8.68000647932088   14.69509750211266   17.06945082767410
H         7.32641135743118   14.83949881602422   18.19607820884054
H         8.40204976998972   16.21148870163154   17.93226990735205
C         7.33106744184380   19.11915797881153   12.22390596261591
C         7.37719530056101   18.15578626056799   11.21937752819569
H         6.46424692191046   17.64723123928772   10.93613205693335
C         8.57484520034983   17.86356944443852   10.59325729766047
H         8.60501689285722   17.11818320520713    9.81237159792488
C         9.73225310711358   18.52645935126465   10.96870286329214
H        10.66987347822083   18.29777019701632   10.48319765773579
C         9.68791075491791   19.48759608545733   11.96579117971800
H        10.58972537404360   20.00923521566383   12.25410855676226
C         8.49240256651837   19.79004282924149   12.59234630984927
H         8.46631666457075   20.54338357924348   13.36790674312381
C         6.03179573383517   20.23099128909889   14.52779126676433
C         6.94476400857409   19.64182017474608   15.40327942196246
H         7.56753654396192   18.82814868554928   15.05283451770982
C         7.06282627185951   20.09849354890158   16.70121272749533
H         7.78248136981784   19.64515989678726   17.36809292918495
C         6.25508827656660   21.13033747136534   17.15216841995365
H         6.34790297224711   21.48389674872386   18.16879752091172
C         5.32672515350060   21.70336441045599   16.29772381501927
H         4.68958441702549   22.50290459284652   16.64837719122042
C         5.20691982342368   21.25205655146098   14.99757864948406
H         4.47335658708061   21.69082007997724   14.33404751564631
C         5.17789128578904   20.83594054377165   11.88217646717898
C         4.12575694918243   20.63531886086514   10.99642245530546
H         3.63136850153518   19.67330746371128   10.97291315164970
C         3.73440526562287   21.65598859625833   10.14698982792698
H         2.92072301718571   21.49559201573710    9.45547385202046
C         4.38860219036153   22.87585443441037   10.18140488952116
H         4.08442721855546   23.67286033495401    9.51846964532629
C         5.43987014945329   23.07649007537178   11.06339009055181
H         5.95267394945577   24.02760706683197   11.08615199448176
C         5.83978988492021   22.06050197578958   11.91011558965220
H         6.66241991933703   22.21470577475127   12.59504663875673
N         3.40242088576660   18.35439719913843   14.51216074343767
N         5.41792084837450   16.68116887411097   14.19978110181666
Cu        4.24488278876686   17.54790621391441   12.67763659882555
P         5.68331497143579   19.43505254885005   12.93499910779118

