47
CSD_code = LESTOS | q = 0 | S = 0 | Stoichiometry = C16H27Cl2PRu | MND = 9
Ru        3.32490535913480    4.07971050544875    8.49315712799048
P         4.04805960957703    4.46146660031282   10.58827307709450
H         4.59406087853509    5.70385538619210   10.90341087729455
H         3.10410930034709    4.43403544878463   11.60492420000905
Cl        1.88625369626454    2.67431652264543    9.72343877555459
Cl        2.09718287012685    5.92330617323303    9.36407418283156
C         4.18555524897280    5.19091449569278    6.70708066225949
C         4.43617490040963    6.66037745007627    6.46605608835289
H         3.47481950326139    7.13361850831583    6.23812496842551
C         5.01322357005542    7.35138693072749    7.70187795206873
H         6.01708933441562    6.99697315943093    7.92497655209521
H         4.36988066457536    7.16331551462517    8.56103637273258
H         5.06097287096804    8.42449430635560    7.53583873967562
C         5.36002301829970    6.82664504918979    5.25454030913082
H         6.33282751254530    6.37879458505025    5.44832418910611
H         5.50399261386486    7.88259805414970    5.04042538846685
H         4.93132847377083    6.35121683642076    4.37417771749654
C         5.18224211071717    4.34984142208812    7.24126441927775
H         6.15855128653725    4.75485955806326    7.48234940037411
C         4.96166529435272    2.95449959300779    7.38336598834561
H         5.76741763198175    2.31749257427839    7.73302606598385
C         3.72995708335315    2.38479997992490    7.01516951393694
C         3.46321985241901    0.91990906350579    7.17486361879753
H         4.37448343752960    0.37699814258164    7.41668658330082
H         3.02966345076403    0.50684815445717    6.26528420786448
H         2.74641985949230    0.77290748982136    7.98729030100625
C         2.73479962446403    3.22774070685133    6.43639263589012
H         1.80952717238358    2.78451650677389    6.08420779916792
C         2.96078340731246    4.59554970220669    6.28870656962423
H         2.20794608425067    5.21906297757289    5.81734076548748
C         5.32792087924386    3.35481684638574   11.31491274252483
H         6.23904025144500    3.46175686932867   10.70977054485219
C         5.62404249657388    3.75243217190311   12.75987738399684
H         5.99524445591314    4.78003856389216   12.79904581292143
H         4.69741082869754    3.70774340278410   13.33836084427266
C         6.64868288998490    2.79967381376707   13.37125790544484
H         7.59250478248923    2.88370417920991   12.82697502808931
H         6.83563269391644    3.07920112737558   14.40984981163541
C         6.14894071489380    1.35947555407565   13.30067416315469
H         5.23268656523552    1.26579774317150   13.88695759274002
H         6.89356736846257    0.68744577608770   13.73179428639411
C         5.86328191299232    0.96282013753925   11.85512544848417
H         6.79141884480816    1.00345911132115   11.27882771044732
H         5.48871422143758   -0.06152054829524   11.81707208359405
C         4.83817712458022    1.90909870471679   11.24008253937584
H         3.88989323729717    1.82944216293312   11.77777157420801
H         4.64020501134156    1.63976298601423   10.19845947822442

