71
CSD_code = LESWEM | q = 0 | S = 0 | Stoichiometry = C26H36N6NiS2 | MND = 6
Ni        3.15053132186582    7.72149210032299    3.56146868868086
N         3.01298813418795    6.59495623405741    4.97877686889826
C         3.44772241476747    5.77135026533059    5.69828954105971
S         3.96034588919870    4.66334043503366    6.71040611359090
N         3.27149467551448    8.85045037838192    2.15654409934348
C         3.15901421775212    9.93609314828149    1.71303947165760
S         3.02616082502780   11.35263454936785    1.01411884495280
N         5.04521447353499    7.03003423875640    3.10749424027408
N         2.49128077266219    5.98342127346497    2.26729283551940
N         1.20910516905555    8.31358059217368    3.98735478283304
N         3.75347456843129    9.44545009650852    4.86995375570663
C         4.90406414539812    5.67287855442627    2.56859989688578
C         3.72252917980630    5.60211929867594    1.58138300357884
C         1.25467686414482    6.12343430824459    1.49248972378085
C         1.44050076727356    6.96373529835089    0.23295732586424
C         0.15094161358805    6.69776226402343    2.41056270440015
C         0.26433267609295    8.17042084132034    2.86873758280524
C        -1.11499320529753    8.66470034873771    3.25940347079392
C        -1.73023925355314    9.67412428559922    2.53147226198044
C        -2.98986771590141   10.12943388538285    2.88055877452884
C        -3.64850942871827    9.58259938754929    3.96804208047754
C        -3.04217674586283    8.57779935463833    4.70295720413228
C        -1.78475246092057    8.12192996241711    4.35054735611030
C         1.31882027656083    9.65501916734012    4.56701528982178
C         2.49559227981053    9.71552986752674    5.56336944701698
C         4.92169491336430    9.07527742379583    5.67277666813294
C         5.40586714143493   10.24147454816083    6.54208446228245
C         6.06538400806675    8.61775880690961    4.74170047497595
C         6.01036947780174    7.16886956172991    4.20873635348573
C         7.39648986911585    6.74529893718200    3.76500832147432
C         8.02577624564603    7.37235781793002    2.69541381392674
C         9.28816189092683    6.97633398581029    2.29178910155954
C         9.93840666834435    5.94771228111994    2.95238759804729
C         9.31990560605532    5.31759682187812    4.01827618292459
C         8.05592475972462    5.71365599620859    4.41958398245843
H         5.36068434722558    7.63044358078007    2.34290889816507
H         5.82000609550856    5.35246253266037    2.05328812837834
H         4.72486322506564    4.98961043250300    3.40336677225695
H         3.67201751572303    4.58403010364307    1.16426907736901
H         3.90272584512584    6.30571741843090    0.76632693545659
H         2.31418784839412    5.28046385484728    2.98597743423443
H         0.89748645478565    5.12442180285781    1.17470019235971
H         1.97521157317576    6.40264116758466   -0.52924741345395
H         0.46855268917288    7.23660606092954   -0.16960553981511
H         1.99725476718526    7.86766607851515    0.45713169373470
H        -0.79445304230860    6.60404599430653    1.87113520033041
H         0.08271917151854    6.06443058839661    3.29866894178018
H         0.63175147432520    8.78386014846085    2.04219269654702
H        -1.21690400132036   10.10697548490270    1.68500492944255
H        -3.45600668923237   10.91447550279453    2.30397523503395
H        -4.63038072164572    9.93752570043794    4.24324559700981
H        -3.55061563186070    8.14689867653015    5.55297743016201
H        -1.32765061651902    7.33265991785261    4.93133256527984
H         0.90299935734030    7.68632338141725    4.73329224727228
H         1.49232210384915   10.37012254220707    3.75839424791134
H         0.39627712966654    9.94293479749920    5.08957548517757
H         2.35706047195740    8.94858860170299    6.33124272221790
H         2.48208081085493   10.70238869635815    6.04725215136707
H         3.99571143908560   10.26782038589907    4.31727893917251
H         4.62946982366384    8.24347025683061    6.32232559895933
H         5.72548042828636   11.07359794018530    5.91688569614070
H         4.60989744979436   10.58522005511623    7.19819847841866
H         6.24335375270797    9.93386522751831    7.16216276902213
H         6.12110031667855    9.30733534168663    3.89580601182041
H         6.99979224102858    8.70591131718320    5.29970207655388
H         5.69014224188161    6.50730054875465    5.01973826722414
H         7.53378226770043    8.18143803042285    2.17319622851235
H         9.76602805462685    7.47271803646106    1.45998811695529
H        10.92382557265705    5.63920869208455    2.63672703562416
H         9.82097526837492    4.51422142174523    4.53742680826219
H         7.57381893062914    5.21787336385738    5.24966602115355

