77
CSD_code = LESWOV | q = 0 | S = 0 | Stoichiometry = C40H24F6MoO4P2 | MND = 6
Mo        7.61088998312244    2.91369447293072    4.83671720461318
P         8.65032219979209    1.39830261622037    3.26586654850474
F        13.44586904183665    4.06066465898956    1.01870623214753
F        11.39075759528904   -3.55988707553169    4.97953135698816
F         5.23268822840250    0.00901418906567   -1.36491077964057
O         4.99249268625663    2.98018620653456    3.18512162918461
O         8.78070126428958    5.12909790056977    3.03325069500298
C         5.95270398893300    2.92586436451677    3.80033474591585
C         8.35987827591385    4.29221975790498    3.68587720704604
C        10.10257958041107    2.16759050446350    2.46144001671352
C        10.14317950125514    2.61056923739448    1.14449622737898
C        11.26866544116969    3.25018776925685    0.65493219398079
C        12.35098223303707    3.43989225647640    1.49356961418638
C        12.34384520201569    2.99601343784034    2.80558019489808
C        11.21468500219241    2.36148656371296    3.28090514022567
C         9.46676697543624   -0.15604497658778    3.76064391200445
C        10.29816932612806   -0.84396821251359    2.87626524565666
C        10.94449838751681   -1.99378290573544    3.28275545712725
C        10.75936971120592   -2.44156661278591    4.58203391420652
C         9.95058156554569   -1.77041948807671    5.48140399978683
C         9.30742642172637   -0.62207723164101    5.05760041240721
C         7.66027678599622    0.89339697207734    1.82127769392760
C         7.44614662507878   -0.43046932953742    1.44947030716949
C         6.62788498756356   -0.73215603890462    0.37551768064251
C         6.02552766101303    0.30141908848466   -0.31920039539030
C         6.21237631359963    1.62742894476725    0.03509809422902
C         7.02680658684072    1.91501837636372    1.11256796845924
H         9.30149854422194    2.45644171016064    0.48567822947645
H        11.31141375152051    3.60201773917906   -0.36387686263504
H        13.20802658656379    3.15297889584522    3.43152063548902
H        11.19503690891319    1.99774886873244    4.29988355822225
H        10.43816736446703   -0.47031811013967    1.87111740942654
H        11.59109543197748   -2.54238819832894    2.61603050641100
H         9.84080347288460   -2.13945461051923    6.48894026936054
H         8.67777111454098   -0.06736732828423    5.74345288816646
H         7.91358164090229   -1.23348698528017    2.00148889369338
H         6.45308518062777   -1.75308654078232    0.07357134083589
H         5.71955287887748    2.40764681039560   -0.52318996945076
H         7.17502169033880    2.94502485453507    1.41595888880475
P         6.57114608929154    1.39814004181170    6.40700390880027
C         9.27037277622859    2.92508157158095    5.87105853061085
C         6.86263328031015    4.29239527088388    5.98775139046491
C         5.11880434907445    2.16756915654546    7.21114576132379
C         5.75481051623249   -0.15619368376344    5.91211244579677
C         7.56115797266385    0.89334848222972    7.85163385355841
O        10.22916739263992    2.97763055646223    6.48864405017460
O         6.44229894572456    5.12929020017564    6.64066260948788
C         5.07794339798544    2.61062906412835    8.52805053501117
C         4.00680404396419    2.36126802876075    6.39148405581980
C         4.92337515254272   -0.84414139000173    6.79641829516835
C         5.91423123194452   -0.62212567290822    4.61514019410560
C         7.77535758616699   -0.43049049952792    8.22345375464405
C         8.19452463846500    1.91502769230260    8.56034657404590
C         3.95233418914006    3.25023446803747    9.01735096918220
H         5.91948997387418    2.45651232718429    9.18704582275282
C         2.87753861350092    2.99581122821496    6.86653648488237
H         4.02666098052636    1.99742390305288    5.37254289226430
C         4.27713930360224   -1.99397181167411    6.38985457250884
H         4.78327369923104   -0.47047836140694    7.80154770411439
C         5.27116607575112   -1.77048160503771    4.19125982977176
H         6.54376670019162   -0.06725195091389    3.92930758381684
C         8.59346170108400   -0.73209643044555    9.29754115340977
H         7.30811573056878   -1.23354669371203    7.67132327908481
C         9.00879686103789    1.62751982605672    9.63795341225278
H         8.04627865554381    2.94502287871176    8.25692559781662
C         2.87017644999679    3.43985822117736    8.17848911039481
H         3.90939136721284    3.60219173877888   10.03610726478252
H         2.01348344720994    3.15273221728157    6.24041064239705
C         4.46242606691515   -2.44173753667346    5.09059016160173
H         3.63046633733768   -2.54257599814871    7.05650261199704
H         5.38094274185072   -2.13941487072358    3.18368860208847
C         9.19559956225272    0.30153492016518    9.99236728606235
H         8.76829486251219   -1.75300911125763    9.59952117888824
H         9.50150657125560    2.40778097238269   10.19628030641616
F         1.77521949529701    4.06072371935215    8.65306925675215
F         3.83122658025921   -3.56015253660403    4.69306189668541
F         9.98819052238656    0.00920911526140   11.03828811622082

