51
CSD_code = LESXUC | q = 0 | S = 0 | Stoichiometry = C24H20NO4PW | MND = 6
W         6.17742778483067    8.18378865514483    5.51020750588602
C         6.74053720961454    6.46312969590260    6.33039216011803
O         7.08112087126364    5.46354021370815    6.77525724015967
C         5.65602781915701    9.90888487929109    4.67232061977396
O         5.31825843378399   10.89829277605917    4.20541679110712
C         5.68552018392923    7.22541020702125    3.85704351489126
O         5.38336227065803    6.66314423923941    2.90370515165386
C         4.30825737203999    7.95805174718930    6.06510808871755
O         3.21684458566559    7.83556255933198    6.40027414372530
P         7.06724375146103    9.32322138173239    7.45116761207467
C         8.79287625355482    8.73514019551051    7.44406989295285
C         9.30721531376439    8.30307516375930    6.21168502994930
C        10.57383335045685    7.73268586818614    6.18579253293516
H        11.00683163660801    7.38553702530568    5.26118504521580
C        11.30997626533278    7.58488196393058    7.35046782865955
H        12.28799804288838    7.12984872926491    7.30362517706329
C        10.79997410319117    8.01385454278374    8.56167489562315
H        11.37290879281884    7.89516559392212    9.46872721715918
C         9.54039834986904    8.58355323831715    8.60490363133737
H         9.12133041636552    8.90023381829010    9.54946060026061
C         7.22506995168838   11.13662146577605    7.53684648102340
C         6.03069237490277   11.84724449605649    7.44813189369368
H         5.10196363150832   11.29801004298179    7.34850707675627
C         6.03993399865486   13.22796920072398    7.48207289696163
H         5.11260085727385   13.77680202226642    7.41338424187430
C         7.24342469865791   13.90755770118546    7.59656694705612
H         7.25348106282249   14.98715018168659    7.61843226379432
C         8.43392672514178   13.20497720266519    7.67939646662706
H         9.37085734526018   13.73591651554354    7.76751757999581
C         8.43011727623432   11.82072844516174    7.65004477153645
H         9.36166236260720   11.27289539318805    7.71666135315747
C         6.50864274408923    8.96974378416592    9.14628350152542
C         6.80144902867141    9.80019311348655   10.22574485476452
H         7.37481391256560   10.70531813035153   10.07445036083933
C         6.34666934740211    9.47327562690428   11.49000738297999
H         6.57583661835878   10.11876142874993   12.32564520086489
C         5.59545976467763    8.32517148541427   11.68556417963177
H         5.24121987702013    8.07604785858605   12.67489590145578
C         5.28952517182720    7.50486009876733   10.61207199406246
H         4.69333304745068    6.61705127003704   10.76115108313273
C         5.74051913764027    7.82753343092622    9.34496698399417
H         5.49012329472942    7.20516016735582    8.49496504106019
N         8.51736542323693    8.50066959959316    5.01713345179174
C         8.86418462115323    7.56856309068011    3.94148055128011
H         8.14661492663939    7.68611346182087    3.12930790269053
H         8.81394092231087    6.54277073369503    4.30713159726299
H         9.86472071499655    7.75902343763991    3.53254047542540
C         8.74703089169697    9.86710898049017    4.53554941791375
H         8.15694909318873   10.04055908773819    3.63506649024263
H         9.80790020205091   10.02573228352478    4.29459550116681
H         8.45252816828633   10.59436776894518    5.29340147617590

