59
CSD_code = LESZOZ | q = 1 | S = 0 | Stoichiometry = C28H23N4O2RuS(1+) | MND = 6
Ru        3.11747737253812    9.36103340882740   10.99590081894340
S         2.29518764775841   11.43313470586230   10.00198986038500
O         4.36990512687177    9.29675147315001    9.33080781511515
O         5.01319614890162    9.31875811681527    7.23198421671383
N         4.44388181494433   10.40290527908764   12.03219053596057
N         2.10551834693213    9.58167048396607   12.69358405526699
N         3.93641200119167    7.58239090458688   11.36860078466471
N         1.86801958176896    8.19050084210151    9.97507411075747
C         5.68474411482082   10.66574630352874   11.63013172519479
H         5.96863652256479   10.24157168216586   10.67374557929605
C         6.56211962852805   11.43083392240075   12.37568208905885
H         7.55704735336208   11.62247949630862   12.00918401213216
C         6.13314899253999   11.94374749195990   13.59420383369312
H         6.78764505322042   12.55369326248220   14.19603973952116
C         4.85399193877795   11.64876815436764   14.02996065140691
H         4.50562761069033   12.02136826547578   14.97871920949300
C         4.02390352562019   10.86207985447267   13.23173732541044
C         2.68250612252867   10.41333595367425   13.59776776309121
C         2.03671649793863   10.75768675335386   14.78398776257020
H         2.50753443005439   11.43158444360864   15.48017407393632
C         0.78937457421617   10.23226306397584   15.06166632182284
H         0.27422512536711   10.49090512952090   15.97247067180986
C         0.22014842458850    9.35787140104528   14.14330831586547
H        -0.74422068974906    8.91235591837555   14.32397430018673
C         0.90949459795369    9.06529823247616   12.98342686475285
H         0.48978883771031    8.38777557152607   12.25047180808618
C         4.93088192023972    7.31235013704971   12.21114274717041
H         5.10814731857509    8.03399095140942   13.00049794436069
C         5.71034981889041    6.17589904960608   12.11023647760259
H         6.50755976900876    6.00353061528294   12.81454030167687
C         5.45593898446086    5.27950995953336   11.07938148323480
H         6.06206050397756    4.39665201878840   10.95454431106446
C         4.40599129717075    5.53786527240117   10.21879986121481
H         4.18332581383469    4.85603473164955    9.41514595246777
C         3.64870574215027    6.69632567435256   10.38722593820813
C         2.45752137693308    7.02950099288781    9.60708076375732
C         1.90050134848507    6.21769604933317    8.62014524209268
H         2.40376746050976    5.31809945790105    8.30793597049614
C         0.69919919318580    6.57984770136218    8.03959759119832
H         0.26196812355705    5.97448130245680    7.26216676390625
C         0.05495939916363    7.72278486151672    8.49751822255087
H        -0.90401420225574    8.01866269329885    8.10587866654893
C         0.67675279247344    8.49395560009838    9.45972736346477
H         0.20979434669650    9.39712554505563    9.83526820428987
C         1.94715788066106   10.84666981351106    8.33323581241140
C         0.76031548503829   11.30152563899301    7.77412489289549
H         0.13647369193618   11.97647916889876    8.34062114888247
C         0.38886664749499   10.89059060643275    6.50704011073776
H        -0.53445125283287   11.24638909670635    6.07717469071959
C         1.21379932418460   10.03550582258049    5.79375789197727
H         0.93546113905696    9.71499996866175    4.80190623934965
C         2.40666242716142    9.60955780362226    6.34608434250832
H         3.08350577043922    8.97569353897335    5.79290708460862
C         2.79319841372008    9.99620999259474    7.62671730792844
C         4.16534572193518    9.49572874174515    8.08662430057505
C         3.73910027916041   12.47957610645772    9.64218944881923
H         4.54201739101542   11.88033081282960    9.22180922775119
H         4.04922975400400   12.94645086211893   10.57305826693030
H         3.42127561833181   13.23956929678467    8.93323118344514

