25
CSD_code = LETGIC | q = 0 | S = 0 | Stoichiometry = C2H8Cl2N12Pd | MND = 4
Cl        3.04274970882835    0.69926498445842   -2.18166245530890
Pd        2.86716675196148    0.00006968484231    0.00163351370919
N         4.00797670872981    1.49167481510399    0.55028041493113
C         4.00920045814182    2.76294067168449    0.13799064116993
N         4.96540416645174    1.36523878464142    1.46245293245336
N         4.99030318877662    3.37855411095335    0.84985825407396
N         5.55407028006902    2.45358900360764    1.66454431238020
N         3.18488595729534    3.32701750846616   -0.74213089541945
H         2.77979743200156    2.64539502336403   -1.40603623860071
H         3.44405303966278    4.23808058626579   -1.08628747805411
N         5.35191126390486    4.70371606943111    0.75759836626857
H         6.36193457609493    4.77801103263858    0.65891277772867
H         5.07245836734093    5.21186030665838    1.59549920042428
Cl        2.69737608814797   -0.70387518562729    2.18427657322749
N         1.72556272895567   -1.49081797388912   -0.54740161230121
C         1.72541123435352   -2.76299277279483   -0.13795047046249
N         0.76635944320058   -1.36249624068686   -1.45734729039056
N         0.74303115627830   -3.37717815617470   -0.84920877531396
N         0.17756982724874   -2.45052229428508   -1.66078627907397
N         2.55166252620618   -3.32885318598837    0.73918881713782
H         2.95804549723879   -2.64853290100586    1.40355346709459
H         2.29380479830036   -4.24082493173657    1.08188126906907
N         0.38207182667733   -4.70265039970520   -0.75951753456102
H        -0.62797574877693   -4.77747768582655   -0.66071802467120
H         0.66146872290521   -5.20919085439962   -1.59862348550914

