88
CSD_code = LETHOI | q = 0 | S = 0 | Stoichiometry = C36H43Cl3N5Rh | MND = 6
C         4.52909877558873    5.94457582846268   -1.17720730913090
C         3.05882152657227    4.70471808950892    0.21985988026496
C         1.75901819020090    3.73708384818498   -1.30614493997279
H         0.94725265449297    3.13235753883066   -1.65537066535528
C         2.69539134589434    4.43170422004673   -1.98906269381973
H         2.84581403547470    4.54810088046806   -3.04193415633470
C         1.17292044857919    3.35348489625849    1.05435726579086
C         1.50446347708863    2.10590973197630    1.58234914438034
C         0.64446316666519    1.54285160928456    2.51480663594753
H         0.87584719575307    0.57872705571772    2.93962378900074
C        -0.50094982316923    2.20441451447417    2.91078120662542
H        -1.16045775741116    1.75143155171709    3.63625156294029
C        -0.79667524500048    3.44965427130305    2.39371320897323
H        -1.68458252580763    3.96506826288958    2.72383614146303
C         0.03580540951610    4.05304605129577    1.46041871232210
C        -0.29662043674114    5.42345313822946    0.92404836507023
H         0.54482606006772    5.80211170288684    0.33816035659115
C        -1.52734208550032    5.35897230945675    0.01634354504855
H        -1.35645857833426    4.68773695082817   -0.82432000415616
H        -1.75212185335530    6.34890083585612   -0.37366708766741
H        -2.39341920638918    5.00080978743531    0.56848906611195
C        -0.50590184659970    6.40757383691036    2.07473730134758
H        -1.41596227413874    6.19377016175022    2.62952839640182
H        -0.56395450525456    7.42030547828923    1.68426133110057
H         0.34160937059135    6.35289650275068    2.75193848036270
C         2.76376975731094    1.37647663608337    1.18108440806630
H         3.34751964867531    2.01257245795032    0.50744410653451
C         2.43042096932248    0.08183366332556    0.43575577298158
H         1.85227786744032   -0.58794046377429    1.06705553397992
H         3.34567401329361   -0.42760729501057    0.14187227152308
H         1.84953104746665    0.29260176482770   -0.46057865229995
C         3.61838165308325    1.10127172690186    2.42040381811296
H         3.73041560780160    2.01696941246850    2.99645427135255
H         4.60270023441101    0.74001550330112    2.12923064356334
H         3.15463416413344    0.35060241129006    3.05436363393266
C         5.06862255346573    6.44987288625530   -2.35000752556174
H         4.72362253602445    6.11277796081264   -3.31303084344984
C         6.06177562932410    7.41515526638301   -2.24389134621354
H         6.50195219836618    7.82579478253758   -3.13861063310891
C         6.47926510162402    7.87401607507688   -1.00167185533806
H         7.22916438219914    8.64232560446938   -0.91794323570958
C         5.89402169686826    7.31854352169807    0.12592646838682
C         5.39873280041440    7.01139692679993    2.42804841306578
C         6.76229040161456    8.50687458270135    3.34952007279118
H         7.20834520343895    9.05803157086005    4.15191652168484
C         6.96460953894131    8.57736683972014    2.01555838448269
H         7.62268177943811    9.19672602357704    1.44299894709518
C         5.34574518839971    7.19357577174891    4.88132680639103
C         4.18683839360514    7.79444103435624    5.37310826748719
C         3.80630599165288    7.49501524746165    6.67461163765068
H         2.91784317856243    7.94775159926254    7.08458115686627
C         4.54540003029992    6.62279804776303    7.44829703033711
H         4.23518690645423    6.40456022651874    8.45962590249504
C         5.67269646011810    6.01605600088290    6.92957451464594
H         6.23185121202488    5.32313777546648    7.53823870704055
C         6.09008451827668    6.28318916034461    5.63322737160910
C         7.31818086781725    5.60597527031842    5.07070594651795
H         7.33744067796810    5.74323907792108    3.98558282301420
C         7.29378440244940    4.10000924903368    5.34363796847391
H         7.52445868146789    3.88290752187110    6.38350038135821
H         8.03238061940600    3.59929968675705    4.72126928488407
H         6.31093550429289    3.69224874827757    5.11833875121606
C         8.58631134388052    6.23480031613708    5.65505133880934
H         8.64665101486677    7.29264295449588    5.40713090647604
H         9.46758982749285    5.73791146548032    5.25557804221570
H         8.59399617334241    6.13710751450668    6.73843972221975
C         3.36944243829906    8.74984690484916    4.53999837645366
H         3.67451344807847    8.67126943072729    3.49339646376134
C         3.60580806233771   10.18887408099390    5.00580111173428
H         3.31091116676176   10.30679484871958    6.04656200104461
H         3.01972425144606   10.87546442965177    4.39955526587215
H         4.65703668282183   10.45969584674801    4.91510919764882
C         1.88586655910348    8.38583868244274    4.59095402423622
H         1.77295534382587    7.31940026006717    4.41326940780821
H         1.35229963683005    8.92206954745351    3.81042984295030
H         1.43979560814253    8.63457468337502    5.55086272097834
C         5.49013070806594    4.18044275423846    1.88240931653325
H         5.61878053854387    3.95623736079505    2.94147380144046
H         5.23521317913866    3.25530861453152    1.36156590152100
Cl        3.05538063353186    4.96628315159133    3.45353771416780
Cl        2.62288935207944    7.57178385808016    1.15308895526028
Cl        7.12727987968798    4.58718909053584    1.28794963556228
N         4.96940446944011    6.36081534884268    0.01302394612895
N         3.49605013501425    5.02904311069533   -1.04573619120082
N         1.99720415029814    3.91749565019241    0.03556604314171
N         6.12278215150559    7.65257117893818    1.44954062927020
N         5.80839048630613    7.54458148217944    3.57902181100555
Rh        4.12056582293128    5.71331610269571    1.59269675581264

