83
CSD_code = LETHIC | q = 0 | S = 0 | Stoichiometry = C35H41ClN5Rh | MND = 4
C        13.32469080080285    1.99575678472043    0.51549200529408
C        16.68918095429422    6.85613649934814    4.78023704687421
H        17.68277549781741    6.48760044331095    4.97877147502813
C        12.22196869027625    1.85451017730935    1.35902769454240
C        15.71313372134624    6.73093281659794    5.74962830450725
H        15.95301016568867    6.26423122754996    6.69376634888157
C        10.89862936676328    2.49824714064033    1.01221060449415
H        10.85566832271417    2.64881701281183   -0.07290525335909
C        12.80630227519243    2.37149891856629   -1.88706421519145
H        12.58963352866881    1.34109150398069   -2.08509693668419
C        13.61630618459014    0.56887010654119    2.83919695241540
H        13.73779152453309    0.02688945726662    3.76561700221830
C        13.00790651372886    6.48512327618492   -3.45242728719882
H        12.71299233936753    5.90676040216076   -4.31263548766585
C        13.40786792845964    4.13415362425410   -0.64604475477752
C        14.34026088115364    7.58477988547335    1.02996163780918
C        14.44838898251126    9.74038256161294    0.35546091726768
H        14.37297540061643   10.57806556543823   -0.30636497804034
C        14.09576575419499    7.77496187201995    4.30662916986061
C        12.77013390288332    3.44946774351242   -2.70466366066069
H        12.51743146608467    3.52592686279955   -3.74182292067835
C        15.72029288550706    1.57928294886672   -0.16146769281304
H        15.32453999547502    1.78073291133877   -1.16396068289006
C        12.69449357237305    8.26431775082837    4.02105680871062
H        12.74354171840546    9.02616507937157    3.23405652240439
C        14.55847274710381    1.40525257984246    0.78960452860175
C        14.43221053306310    7.19475417395759    5.52091920778945
H        13.68536984645981    7.08728598320592    6.29097439244815
C        13.24397892152560    5.87455518875592   -2.23481197980330
C        17.44536390211102    7.56113172462592    2.47008817565972
H        17.14453499279203    8.36259300602514    1.78515997047445
C        14.81837663850085    9.67963673667642    1.65594167077961
H        15.12404183423832   10.45539834157520    2.32874728920449
C        12.39400862091736    1.13432644848088    2.53205751937128
H        11.57236167594678    1.02566616977869    3.22165587312181
C        13.54146081327466    8.59663884621069   -2.41975538305497
H        13.66205043200671    9.66620341030847   -2.47390794884399
C        16.39724997188591    7.43076947128103    3.55189956560479
C        18.81914276095708    7.93535252895313    3.03004448515845
H        19.26450279676263    7.10339812272067    3.56851807632012
H        18.74244700709237    8.78602804010954    3.70446752847611
H        19.48830502188892    8.20114007366852    2.21405837985952
C         9.70406415070875    1.62279127173887    1.39601807389075
H         9.57443717011304    1.58465411991763    2.47406822165703
H         9.83354340175084    0.60818895137565    1.02430541070255
H         8.79367619425863    2.03468092848035    0.96496539240740
C        17.52665216186126    6.25760963808736    1.67219689975864
H        17.78359878782632    5.43020227910814    2.32816057819054
H        18.27791587906186    6.33772005722549    0.88880820225522
H        16.55848275270296    6.03034430296463    1.21385537692136
C        15.08832404341862    7.86091601181591    3.33021197036806
C        16.59241299874914    0.32644871291622   -0.25928630469448
H        17.16576281306326    0.17478479706776    0.65110222793001
H        17.29602539546150    0.43235623518901   -1.08264321930676
H        15.98192775082379   -0.55654409786306   -0.43831457727068
C        13.15933646496555    7.86572936831560   -3.54072710931820
H        12.98085142555424    8.36870096688221   -4.47695157250935
C        13.76372447063665    7.91725293702281   -1.23648040932353
C        14.68536718335851    0.69303878753103    1.97323657138306
H        15.63071997715988    0.24408296612919    2.23215973440921
C        10.80020428452419    3.86792182257098    1.68801590775022
H         9.85161970293912    4.34371096255060    1.44656742543194
H        11.61752755480716    4.51649032337301    1.35563409737021
H        10.88067085561987    3.76202725287672    2.76654239516232
C        16.55674199379069    2.78529931684419    0.27230439452468
H        15.94398928617616    3.69019316835024    0.27963834899705
H        17.39512299081111    2.93120799440970   -0.40608289535697
H        16.93579874049218    2.63609621057805    1.27980895756957
C        12.03797807640697    8.91165479159205    5.24157618181412
H        11.11669790940118    9.40788309935603    4.94290708387521
H        12.69899535901155    9.65128218291315    5.68926853056134
H        11.78711869091535    8.16834094749577    5.99330254341750
C        11.84470619830359    7.10043031945308    3.50587078635631
H        12.28438208484126    6.68211338695277    2.59697828552868
H        10.83240948471842    7.43507504262365    3.28762642132671
H        11.80534714456619    6.30740450077248    4.24788500669949
N        13.19330519563237    2.80584924416663   -0.64457566248872
N        13.13790371420802    4.52792272659958   -1.93765818569662
N        13.61717698965705    6.57741936501623   -1.14301970476661
N        14.15837803889366    8.45247123025352   -0.02373287253477
N        14.74785841407519    8.36637951424812    2.04652375570530
Cl       14.30648052016171    4.66323740791745    2.41511102441263
Rh       13.93000285860225    5.70569753648234    0.47760273537738

