48
CSD_code = LETJUQ | q = 0 | S = 0 | Stoichiometry = C21H20N4NiO2 | MND = 4
Ni        6.44959733565386    3.08339146258247    3.62059941227642
O         7.94321721594192    2.91958396227344    4.65939282258723
O         4.96717442204979    3.17138962628903    2.49572337895903
N         6.38131322190496    1.28984745539941    3.24240352158103
N         5.32791843955669    0.93573168875955    2.44625563308981
N         6.35170472347489    5.00805726580299    3.94956810703707
N         5.43055570052796    6.97538361069705    4.22157478956701
C         9.82886533116898    2.04847148852053    5.80326877937874
C         8.61187016888878    1.86178963539728    4.92375543462860
C         8.30445991242058    0.59568323975158    4.46174774815462
C         7.20050151446850    0.33428797191189    3.63465939228075
C         6.91584957836031   -1.06561661178016    3.17784102285240
C         4.62377041610191    1.97988547901466    2.11517694038308
C         7.29058389158267    5.96085151209297    3.71002282099806
C         6.73337087667800    7.19385700355055    3.87846240088745
C         5.22870778427304    5.63728484524045    4.26254002489746
C         3.96716508457246    4.99041522247544    4.58566147546765
C         2.74749381752489    5.58448347099510    4.26792062924340
C         1.56383563621704    4.91069136321457    4.50780468851718
C         1.58392767455872    3.64351449245649    5.06526921061968
C         2.79268229403168    3.05357269015086    5.40149599128702
C         3.97912671903028    3.72199475713092    5.17157102196184
C         3.39767021422825    1.81252264939178    1.32372613519007
C         2.53493180822746    2.89408896071405    1.16402611501276
C         1.36583702460004    2.74950398842932    0.44239990962944
C         1.04793277785152    1.52732403320799   -0.12761092549063
C         1.90314305176884    0.44733349739330    0.02957050348603
C         3.07228854975057    0.58463821788021    0.75251764327033
H         9.77730109308081    3.01533288210295    6.29697116369786
H        10.72944462346212    2.01640196489912    5.19186651914818
H         9.89070141518591    1.25893046756902    6.54716767257204
H         8.93580879968365   -0.22995459271843    4.74654232156261
H         6.91877119048461   -1.09731387873190    2.08979495023315
H         5.91911707599947   -1.35657514143287    3.50451690913620
H         7.65146713345622   -1.76154959707376    3.56900172220358
H         8.29511626002590    5.70183856569111    3.43991651695870
H         7.14457704556141    8.17713045019703    3.78183358317795
H         2.72310399903759    6.55654925191886    3.79534992321058
H         0.62285738431498    5.37032545488441    4.24377210783424
H         0.65849410057644    3.11386255857286    5.23386257720423
H         2.80830024803067    2.06652225398722    5.83824842992480
H         4.93332515566684    3.26797561010456    5.44503028854538
H         2.79843795333521    3.83756483299998    1.61874069235305
H         0.69818799808242    3.59111175278771    0.32227583854877
H         0.13422711652689    1.41556660094598   -0.69376706301202
H         1.65340632328338   -0.50516555332266   -0.41584344616309
H         3.74772080660302   -0.24532061914025    0.88662003146902
H         4.74433909218837    7.68200375681829    4.42945463364507

