72
CSD_code = LETKUT | q = 0 | S = 0 | Stoichiometry = C29H37BrNiP2S2 | MND = 4
Br        6.22591030413618   11.51585911999594    2.19560924844423
C         2.68304880848538   12.93792708287945    0.40806175559353
H         2.30275992305342   13.14056279625274    1.43187842561971
C         1.82033189063637   11.89626196735924   -0.18473317033489
C         1.97279690256464   10.56434366604888    0.10884900087969
C         0.97929233151785    9.72873369305521   -0.49670626804510
C         0.07948317534558   10.49451639310271   -1.26506165095962
C        -0.96619210782823    9.92270958946616   -1.97054980790352
H        -1.63585347132424   10.54401733558898   -2.54524855345546
C        -1.12580061708060    8.55379130503670   -1.91496070532501
H        -1.93505224136302    8.08442994641418   -2.45312421637116
C        -0.24521591742053    7.77453452152922   -1.16861778637102
H        -0.37994124043906    6.70335857363609   -1.13854966374815
C         0.79487300469015    8.34462336783872   -0.46777120806538
H         1.45978175787147    7.71741350919999    0.10372815446414
C         3.07189235488533    9.58242186380732    2.71479144215011
H         4.03811174733203    9.30225446969006    3.15484762299847
C         2.48695669385395   10.73343002134427    3.53142801082072
H         1.53543451507799   11.05930543352605    3.10988175578377
H         3.17995395413969   11.57986953678557    3.53433594116106
H         2.32145740408270   10.43085991335354    4.56352939784512
C         2.13794034304570    8.38160296083782    2.70743227816722
H         1.97770110519785    8.03993427869571    3.72935696007486
H         2.55798813001197    7.55389947312311    2.14029742796010
H         1.17117469425414    8.64865019109813    2.28479221765265
C         4.32600415726225    8.91616547346875    0.07956338455331
H         3.54035210443928    8.22747120468305   -0.25017426761705
C         4.94499933877595    9.58942948721552   -1.14358897454911
H         5.71579874739767   10.29298923297911   -0.82090633401594
H         4.18860546918717   10.13429554197185   -1.71060838725531
H         5.40784489240337    8.85662453865419   -1.80175965183787
C         5.37731615285147    8.15910755171922    0.88182068138425
H         5.88639008415299    7.45005170744321    0.23048757146210
H         4.92988836971538    7.60280418127784    1.70221037347542
H         6.12096421409318    8.84010117520478    1.29035953942217
C         2.79685275160909   14.23900538935822   -0.28448265485301
C         3.90362097600690   15.03992111648273   -0.17255212167740
C         3.77281433945112   16.29360490533130   -0.85492991558598
C         2.51336236772952   16.39670457943369   -1.47873110680390
C         2.14152771357685   17.50637577019075   -2.21976094589115
H         1.16627196636117   17.54852683855283   -2.67991627109746
C         3.04270384768595   18.54237837739772   -2.34913624434689
H         2.77582306084317   19.41904934067972   -2.91927952910860
C         4.29735073064065   18.45997285484042   -1.75013433757623
H         4.99474732022490   19.27649571718959   -1.86552301185532
C         4.66570254885024   17.35553185575959   -1.01360341471836
H         5.64334957742581   17.31880546756914   -0.56090474291324
C         5.58874447326060   15.12926485105607    2.28707382952255
H         6.46767937923686   14.62991976646754    2.71618111056742
C         4.39924910713498   14.89109519885745    3.21575933799920
H         4.58850460816535   15.30782488182567    4.20294655192846
H         4.22414748053094   13.81658676903909    3.33028465740143
H         3.49728488616983   15.35218149519274    2.81182056873963
C         5.87009451608660   16.61492282115463    2.12005869393357
H         4.99980755426576   17.12937349013496    1.71730304643039
H         6.72157695427403   16.78802478751940    1.46564044638565
H         6.10077639553787   17.05086250602743    3.09134989927324
C         6.70430237813378   14.41488854252396   -0.39372099017045
H         6.68293343221185   15.44835065735228   -0.75641259058722
C         6.49197909908068   13.46809846454384   -1.57268548216690
H         7.29218270911064   13.56976141463902   -2.30326410348851
H         5.54261729396787   13.67318294854187   -2.06873450017133
H         6.48217916733890   12.43587442545338   -1.21799864823757
C         8.02971324058625   14.13932544763369    0.30572163753037
H         8.03898564603923   13.14468430328334    0.74620008067335
H         8.22327396717004   14.86451737966371    1.09263985598981
H         8.84132374590389   14.19951184287579   -0.41788296823377
Ni        4.42333714672676   12.22467229987005    1.06296564691204
P         5.23064804572753   14.19561687263861    0.71909983268395
P         3.49393611274192   10.27515980588872    1.04147130000935
S         0.45441866150627   12.19752542307323   -1.22521819125701
S         1.52557982363914   14.98325028763519   -1.21834526934219

