73
CSD_code = LETKAZ | q = 0 | S = 0 | Stoichiometry = C26H37F3NiO3P2S | MND = 4
C         3.12173933006604    7.80387750464105    5.43078201074796
H         4.00776000155728    8.39286456243538    5.12423137911498
C         1.91696365242982    8.70041113092666    5.36711017709218
C         1.06374005208083    8.78902198738012    6.46745072799479
C        -0.12554137750162    9.50108099708468    6.38344751358716
H        -0.80821419379240    9.52578090694837    7.21882157333298
C        -0.43967861619404   10.17823386710050    5.21851350039321
H        -1.36196289749508   10.73580599285178    5.14912466680750
C         0.44167458413730   10.15984654320113    4.14871660415688
H         0.21123117240065   10.71765050942475    3.25304368461656
C         1.60905478499505    9.41937243310906    4.21582458848474
H         2.28273293346863    9.39619570970060    3.37134245531533
C         0.51760160135912    6.74299839315133    8.46101743550697
H        -0.43086970973258    7.25199837727891    8.66104240871433
C         0.33715917148876    5.77218629840735    7.29805335679686
H         1.30822140495148    5.38007771242315    6.99442823566591
H        -0.10404250046688    6.27653644447489    6.44057630330043
H        -0.30586704384676    4.94194463552896    7.58336812684358
C         1.02345978679803    6.03180472142060    9.71219766007611
H         0.40878277557304    5.16149067655204    9.93661662951327
H         1.01036324683939    6.69365956100897   10.57538768933236
H         2.05131829863522    5.70507715333875    9.55761028991702
C         1.81242684900716    9.30169783272386    9.26019256392750
H         2.46301860639382    8.87874459667062   10.03532172097805
C         0.47139067713447    9.66627487947839    9.89033894354590
H         0.64625141556966   10.37583132051212   10.69791278265959
H        -0.03462206349779    8.80113569081349   10.31076221004836
H        -0.18455786299640   10.14429045322164    9.16784076918406
C         2.49509513102731   10.53675746019573    8.67456242418204
H         1.85478070997275   11.01474884952056    7.93398060515187
H         3.43296384465926   10.25891266462095    8.19451337146739
H         2.71530628139011   11.25505489021928    9.46174327710496
C         3.02400375610677    6.60627212514218    4.53167269727769
C         2.01253076245930    6.41554472794194    3.59682326269089
H         1.19508630567124    7.11655182915141    3.52983505802576
C         2.03847059495986    5.32508401912132    2.74183318581425
H         1.24290405461473    5.19404467125446    2.02329408684925
C         3.07051318733128    4.40730183308196    2.80422089298449
H         3.08908264484811    3.56085801654626    2.13406469603905
C         4.06430342762277    4.55847126837272    3.75966512185429
H         4.83959124579261    3.81166776066459    3.83749833268691
C         4.03772717897653    5.63635184828994    4.62745959507012
C         5.20605074112457    4.14417377907569    6.77875418714102
H         5.48256242778372    3.46209894044348    5.96663043767310
C         6.23143943664956    4.05332081799689    7.90191281067882
H         6.01728023585333    4.79599744809641    8.66729977502344
H         7.23917968483038    4.23468057743444    7.53583846152034
H         6.20241656935699    3.06334834981512    8.35646023525618
C         3.80906856691415    3.79630121752613    7.28692879198571
H         3.80569336969620    2.82994086290106    7.78830390803574
H         3.09553394068719    3.76466884862628    6.46373664329822
H         3.49006249575650    4.56094278062577    7.99984043491676
C         6.79963413589463    6.25513724479075    5.44033500626726
H         7.44677536498240    6.26137805549729    6.32341299982310
C         6.76628820144493    7.66965448970783    4.86345976314687
H         7.76353734148308    7.97558689364487    4.55135903058898
H         6.41755675382464    8.37034712072689    5.62219107384067
H         6.10644639616383    7.71484658849029    3.99585582862084
C         7.31854778876809    5.25533572993499    4.41375087520843
H         6.69942109764501    5.26657561647104    3.51896810822342
H         7.34727461320219    4.24480286830101    4.81397157887638
H         8.33239220475928    5.52916894544556    4.12520976260959
C         5.92750950396787    8.67178622143222   10.34666988766454
F         6.91266247839238    9.56933456405187   10.23923779066162
F         4.84991920914979    9.31993420501916   10.81925598424694
F         6.28846439245563    7.78195860615779   11.27955553147107
Ni        3.74907288157647    7.31328920821725    7.20381073290181
O         4.42839741777488    6.96250661526114    9.08854316630107
O         5.18039703853310    8.92761614910114    7.83593816540625
O         6.75985183136897    7.14234132664570    8.38519160249236
P         1.79063382722196    7.99111848854235    7.93622946300036
P         5.10163142791060    5.87952916562332    6.10624724270514
S         5.54220542004132    7.82516541845448    8.70345810555634

