78
CSD_code = LETKED | q = 1 | S = 0 | Stoichiometry = C29H45NiOP2(1+) | MND = 4
Ni        8.04564391060171    1.07776992456548    6.87830010356217
P         9.71604916294750    2.58058127201556    6.62111536374636
P         6.85487802220277   -0.75211374768748    7.11769785303144
O         6.87050930566631    2.27894859492559    8.12765895655106
C        12.70575631077995   -0.74206175959760    5.70576298706858
H        13.36837282971256   -1.58709543833664    5.59968202168332
C        11.00087563514502    1.40553280978228    6.06477407684408
C         8.47879025850200   -1.27436973164513    5.06853918133568
C        10.52448400704990    3.30407496580917    8.13701344121273
H        11.52173732342124    3.65322049763929    7.85140521687316
C         6.90700849777356   -3.08019808925944    5.42257832723724
H         6.08807145084318   -3.51890553330284    5.97183180395965
C         7.43676943187310   -1.84888547058476    5.79219916002652
C         5.00897121994240   -0.90684886080041    6.97385643445198
H         4.77689640067244   -1.97722179942769    6.99041299204546
C         8.99946310665626    0.07361603740510    5.47408952987778
H         8.74230761525142    0.78671183621394    4.66772626539726
C        11.33732661866052   -0.93074326124664    5.59784898742913
H        10.95285268255548   -1.92077298138572    5.40871803487445
C         9.68844594730998    3.98843450138521    5.39430535412424
H         9.09310730642284    4.78064719722141    5.86508283906444
C         8.97048961758479   -1.93473011737539    3.94634759521508
H         9.74478742418352   -1.47986073814269    3.34646535593584
C        12.37056197287062    1.58975837150821    6.15020132332764
H        12.78517025460956    2.55438647085654    6.39951567198472
C         5.14061682719503    3.85116270828716    8.47133259624105
H         4.22584728456376    3.25933117936907    8.42223823843792
H         4.88898422163414    4.89444921243877    8.30214566133477
C        10.46841922064211    0.14784652780036    5.72487778707282
C         7.36407969273910   -1.57647225065850    8.70829980255109
H         6.95110853559754   -0.96321693371485    9.51868853549386
C         8.95452264068890    3.52290194102159    4.13795025434996
H         8.78850514251826    4.36069623848642    3.46388526663647
H         7.98367267210268    3.09333652812723    4.39286951652364
H         9.54428451347461    2.77656357110695    3.60748632192358
C         7.43071438230828   -3.74380102064422    4.32842362370961
H         7.03169062880040   -4.70381439914334    4.03968472250878
C        13.22624218399957    0.51711144193772    5.94622668728423
H        14.29328698940200    0.66066732576800    6.01532688473894
C         8.45105185826503   -3.16595936943761    3.58793192348171
H         8.83625706863778   -3.67400763202164    2.71726232823229
C         6.17090488326767    3.34007722215573    7.47090956597608
H         5.72230064016256    2.94911354277462    6.55226021790180
H         6.88645467671310    4.13094672241336    7.20529161562268
C         4.27175231965244   -0.21670455037800    8.11397266564596
H         4.46991686200646    0.85186389282253    8.09982251703128
H         4.56477798887382   -0.62194930460069    9.08079301342602
H         3.19863482797125   -0.36026053625924    8.00089695555044
C         5.85823989064342    3.61849396658244    9.79937510826441
H         5.17515843511337    3.52716156145640   10.63933327570784
H         6.55259153557997    4.43433851977570   10.00348926364884
C         4.60475653272964   -0.32422743665284    5.62160925429999
H         3.52562313400204   -0.37106025401549    5.49272120509662
H         5.07253047259445   -0.87265028420958    4.80575290455810
H         4.91300816452265    0.71932199900526    5.55025071951562
C        10.66534880909101    2.18888738002471    9.16946568257461
H        11.09031747481503    2.57421000877352   10.09400208638023
H        11.31280562102785    1.39581403857001    8.79877626760591
H         9.68929964780131    1.75638580024794    9.39426976678222
C         6.61160462743090    2.31707591876735    9.53347177338793
H         7.55946059356112    2.25872544084512   10.07598038694646
H         6.00065899361580    1.44761246196648    9.80435491335008
C         6.87909874455719   -3.01124280289146    8.86149477203248
H         7.28641810714285   -3.64024954563897    8.07354441617268
H         5.79354583558553   -3.07435460907427    8.84172560378783
H         7.21932872325977   -3.40729572785478    9.81658501486160
C         9.72929925958954    4.47791749956944    8.69749247316454
H         8.70914516541168    4.17857376724456    8.92203668148763
H         9.70521655723593    5.31314934789827    8.00094039808995
H        10.18925212894366    4.82734211769378    9.62028216100710
C         8.88946136636342   -1.48863846023017    8.75400830995224
H         9.26780796194209   -1.75824473012556    9.73734001465179
H         9.21694977085833   -0.46713528455905    8.51969880489308
H         9.32993080170181   -2.15952316511216    8.01852428215052
C        11.06620527675933    4.53665183580394    5.04634133670398
H        11.67749229727524    3.76951898735401    4.57639634192898
H        11.58392995245295    4.91616854057782    5.92383992528442
H        10.95966174389877    5.35951610004921    4.34179127720743

