73
CSD_code = LETQEG | q = 0 | S = 0 | Stoichiometry = C30H32Cl2O6P2Pt | MND = 4
Pt        7.94777252691010    8.19052680063917    1.23365685408163
Cl        9.92300453749395    7.41693312353171    0.38477381474701
Cl        7.11612657238962    6.08035359049107    1.40266327392597
P         8.71680134182013   10.29211040999270    0.85050727959286
P         6.07890305091375    8.79552305774623    2.38724205846836
O         8.96690331705423   11.48286409891303    1.90085828399343
O         6.48543309610149    8.66011593084821    3.91593402835380
O        10.05504580813818   10.58122274032155    0.04924982887052
O         7.59965724626387   10.87372674230161   -0.18235952744939
O         4.70351755453218    7.99514968918639    2.41896336618701
O         5.55005476843973   10.33079589048011    2.33381558066531
C         8.12706108364819   11.82039784823224    2.94272474298541
C         7.46388664377767   13.05479777064385    2.84020560696398
H         7.63764119709325   13.65310700059042    1.95791401281633
C         6.62254895607945   13.46892644721443    3.83055574689722
H         6.10129036499804   14.41158107031641    3.74750466789336
C         6.41291558241633   12.67066522236112    4.97292346601851
C         5.53759825185354   13.07418094263853    6.00239809619988
H         5.01454177422174   14.01403596184435    5.89591575480167
C         5.35603043376719   12.29724593452041    7.11148627569289
H         4.68177928425090   12.61047795936333    7.89489125448908
C         6.05551641681701   11.08859039547326    7.24256268423772
H         5.91599790545183   10.48952027082838    8.13012332786290
C         6.90961120144572   10.66869578933207    6.26090462222968
H         7.44861738568785    9.74061712728437    6.37372588791566
C         7.10006569105009   11.43442146387874    5.09157312747007
C         7.96317617028301   11.01066086332918    4.04344692314298
C         8.63858003968746    9.69937028262652    4.12060838281438
C         7.86784866384047    8.55519951705596    4.11699260147445
C         8.44514105620114    7.27522832374322    4.19092129180988
H         7.79184616227752    6.41614261247106    4.19597724965602
C         9.80680632844910    7.15072694569638    4.23620945034939
H        10.26035005436224    6.17190705623349    4.26167608669263
C        10.63903881569418    8.28984098316279    4.21266224518551
C        12.04442171117075    8.17584605877991    4.20367533121305
H        12.48035328990912    7.18793164496778    4.19938481743445
C        12.83630164728782    9.28907546549288    4.18956359601516
H        13.91180680026576    9.19398011070754    4.17096441853888
C        12.25732992200365   10.56656962800090    4.20773476118348
H        12.89547609635987   11.43786689818084    4.21520957096385
C        10.89828490455274   10.71334465541001    4.21477452758028
H        10.45605767356046   11.69800439702231    4.23425916932507
C        10.05375375903331    9.58432445107670    4.19079053305432
C         9.96728887225280   10.24184089341942   -1.34366812082262
H         9.50557128667794    9.24824326620899   -1.42247889278785
C         9.08859611971665   11.27920755368874   -2.06141162468809
H         8.57156674954032   10.79260131263102   -2.88891485290253
H         9.70664833582335   12.08578899047793   -2.45826758918975
C         8.06609951761181   11.88242589003519   -1.08774652466665
H         8.56038553840378   12.66544234363064   -0.49714295574167
C        11.38232586365169   10.17420944356792   -1.88736591337813
H        11.35827116156546    9.95626114578433   -2.95129028006206
H        11.92090155793272    9.38457462966642   -1.37180739325504
H        11.89264387949907   11.11913737507900   -1.71913559372210
C         6.85547245553872   12.46156721408190   -1.80223949788719
H         7.17401248912359   13.22486610130205   -2.50691400159575
H         6.16974479696930   12.90172839087154   -1.08295544313117
H         6.33500602816622   11.67360767482048   -2.34064659403399
C         3.80035177022658    8.25185704964850    1.34260150793589
H         2.91475416641769    7.64980870164195    1.58420933813580
C         3.41422200396886    9.73604008008885    1.34347041878664
H         2.88045612378276    9.95053340288558    2.27198959505465
H         2.75726700041915    9.94340216720073    0.49900221904625
C         4.63852092975605   10.65120241528379    1.28042787026711
H         5.15989702519300   10.52576503920451    0.32293353283081
C         4.37866233518460    7.77928167051188    0.01538484559172
H         4.68966502893722    6.74155084280666    0.11116410966820
H         5.25845820266758    8.36631621238098   -0.25405906254074
H         3.63298002787905    7.86291019161737   -0.77129484504776
C         4.25174668422103   12.11347640740522    1.45406584362996
H         3.56486943390202   12.41278553901494    0.66688458409126
H         5.14288004939430   12.73277359457121    1.41581263423599
H         3.77813947802307   12.25699128754537    2.42182761384001

