65
CSD_code = LETQUZ | q = 0 | S = 0 | Stoichiometry = C27H35ClPRh | MND = 8
Rh        2.68556246998941    0.60010387822369    2.72158398289891
Cl        4.81177898657158   -0.16857749038943    2.20743611205498
P         3.19572566222810    0.17701773320724    4.86279621915900
C         1.95164573748149    0.48904799645972    0.64585945833529
C         1.21963015243897    1.52240530816717    1.28796278613691
C         0.51675102745961    0.93347860701556    2.38727618997109
C         0.68233129385156   -0.50386802075642    2.30109442157770
C         1.58380718527275   -0.77365028120876    1.25757663629365
C         2.73128467108964    0.59846671901954   -0.62742871705369
H         2.14719993834183    0.18518098513364   -1.45237272737005
H         3.66311126107973    0.03930987155538   -0.55666871109074
H         2.96763231059326    1.63512480958389   -0.85495221750029
C         1.08832690281703    2.93551457694269    0.80784820455117
H         2.03315792571914    3.31900058640177    0.42763059269319
H         0.74135305662661    3.59403355213091    1.60104504718778
H         0.35764811362495    2.96984536706457   -0.00303763708526
C        -0.54635342195145    1.59609941330269    3.20921353101983
H        -0.32772301802309    2.64942860521905    3.37056019444906
H        -0.64872245836488    1.11120802798446    4.17788684621127
H        -1.50537423995214    1.52477076653877    2.69078717300064
C        -0.16863824274958   -1.47982228667489    3.05097380270861
H        -1.18841629383515   -1.42687826176155    2.66348012818056
H        -0.20497473069792   -1.25206663050135    4.11496553809711
H         0.19040804720575   -2.49765821737993    2.92451888689972
C         1.99979720387153   -2.10612071910110    0.71686252786444
H         1.70126301913233   -2.91438957415466    1.38069968538981
H         3.08089674931922   -2.14569698748766    0.58888286590340
H         1.53723784499168   -2.26859066078427   -0.25857599275239
C         1.80600227075612   -0.27415306549915    5.97388374774494
C         1.03039475480562    0.72535834534028    6.58100596569524
C         0.01154343511950    0.36142554012705    7.45113142662442
H        -0.56989780847182    1.13501171052013    7.93208371451440
C        -0.27640093387007   -0.96774895288275    7.69753326392928
H        -1.06265273741209   -1.23659451536862    8.38704968008542
C         0.41461983837826   -1.94733846811361    7.01137330384148
H         0.14870568124312   -2.98656919769747    7.14295832381055
C         1.43740544354137   -1.61846045736886    6.13035124024904
C         1.23829225343423    2.17929502857797    6.29217863028038
H         0.31189755004105    2.72658411161395    6.45846173384550
H         1.55249831636749    2.31833888281198    5.25903474956421
H         2.00112069404921    2.60477026724794    6.94280619818581
C         2.06299472213854   -2.71787156868712    5.32649509386462
H         2.91104664865053   -3.16095368735495    5.84630306489618
H         2.39555157082722   -2.33787500704421    4.36072758494154
H         1.33321172876055   -3.50870407240120    5.15948419029087
C         4.54907996463994   -1.01886129258695    5.23253420260351
H         4.46053237906716   -1.42253848701423    6.23819453644064
H         5.47935328791483   -0.46005952177416    5.13645835586729
H         4.57155290100868   -1.81850840341371    4.49729175645197
C         4.03228853930054    1.66936229625210    5.49516640815900
C         4.23311191065596    2.61167007885483    4.48428088106332
C         5.02289876666229    3.72656839467686    4.74484342071920
H         5.19596224487537    4.45371509300937    3.96461224188598
C         5.57989624657697    3.90497341798412    5.99622959022214
H         6.19508464752083    4.77029762400577    6.19562269428203
C         5.34581130420124    2.98165929778511    7.00045715576314
H         5.77437712803118    3.13375980694156    7.98106329634961
C         4.57848886203251    1.84808928045172    6.76726764337392
C         3.56043066826486    2.45104239088448    3.16129417891493
H         4.27740321947195    2.67947481862031    2.36213268941090
H         2.75490737175229    3.19957085006969    3.10624246237468
C         4.36478037019363    0.87052259881159    7.88341848507375
H         4.20084250737718    1.40002825186560    8.82093107549575
H         5.24903761078906    0.24549795910553    8.00898093863767
H         3.50697948718470    0.23130297790652    7.69031124682351

