23
CSD_code = LETROS | q = 0 | S = 0 | Stoichiometry = C7H8BN2O3STc | MND = 6
Tc        7.35980555654620    1.47843939090247    5.52490875347372
C         8.48539750653623    1.64466891077693    3.96843480241103
C         8.29267885591877   -0.10530120667997    6.07071177087172
C         8.58993455000619    2.51852324965147    6.56475706002111
C         4.29527170145923    1.59748367386906    6.72623224246118
C         2.76510315685563    2.05024916394639    5.23197119194768
H         2.36918378763054    2.27665891451048    4.26392837107520
C         2.13618228852676    1.89590724918062    6.42184035809871
H         1.09948046530646    1.96311330958602    6.67840014904503
C         2.91128103123077    1.37385489799292    8.76188876040278
H         3.34791667771127    2.18798433268161    9.34488732528491
H         3.41023461437871    0.44640975052212    9.04875006847721
H         1.84762150045648    1.30125553297408    8.97668310910906
B         5.25032712640459    1.92272993802702    4.42912132982175
H         6.08125673665489    2.80285063996925    4.84769081969688
H         5.85543512692045    0.79424534571968    4.46998477339260
H         4.86083209402983    2.17058301515732    3.34332523193795
N         4.10742078715957    1.86421165241461    5.42376792030377
N         3.09692877500211    1.60965085291555    7.35941109743217
O         9.16152556404052    1.74285221618581    3.04436489149631
O         8.81112399604102   -1.07200102620092    6.40618651910783
O         9.29181977565496    3.16333296983250    7.20301316036518
S         5.77113832553078    1.28969722606565    7.48234029376535

