73
CSD_code = LETRIO | q = 1 | S = 0 | Stoichiometry = C30H41PRh(1+) | MND = 9
Rh        4.92328657240728    5.47713334395169   12.06262025478244
P         3.69454787462888    3.86332375527205   13.12631320581700
C         4.77912641310355    7.71044162205483   12.31976500281419
C         3.67236751422986    7.23640838523067   11.56698609139784
C         4.17922225529430    6.58819518242737   10.36559113442509
C         5.60444452943413    6.72481130500282   10.36081969158806
C         5.98433345807913    7.36683307311270   11.57267274517350
C         4.72525953377322    8.52623133611454   13.60283808837413
C         5.95561600001828    8.27820783497563   14.48928809448414
H         6.83613716409611    8.78607578095873   14.11527830746409
H         6.16099542616694    7.21088659279265   14.57320009312425
H         5.76699865883606    8.66260514700648   15.48879242337913
C         3.49539310418909    8.16303215728239   14.44764298842668
H         3.60299687080775    8.57881054296750   15.44658039438659
H         3.41316624484901    7.07917137170718   14.53420883021050
H         2.57950353391751    8.56321062439211   14.03001954650854
C         4.65977379639697   10.01024890791502   13.21386684895781
H         5.53485882357534   10.30129023070456   12.63839876590060
H         4.61864262025797   10.62282654057611   14.11071144596027
H         3.77641996626234   10.21674796709378   12.61454773069505
C         2.20814732810046    7.51663113061269   11.74325377289944
H         1.78229195977307    7.02952275711947   12.61653683403833
H         1.65808478358179    7.17882978045804   10.86953633945445
H         2.05141359041551    8.59004050171627   11.83641176294425
C         3.35823383800335    6.19904325892710    9.17947088218215
H         3.15176565088871    7.09690312033403    8.59392278857890
H         2.40862888394961    5.75264496894854    9.46141309732520
H         3.89165990531297    5.50092416299130    8.53975067758643
C         6.49838391808106    6.38273962087987    9.21204762091381
H         6.07748979467919    5.58038858015146    8.61157515662068
H         7.48764239834955    6.07586701398667    9.54211804524809
H         6.60859190325997    7.26059581682458    8.57357367309962
C         7.39005230893072    7.81553660008417   11.82863330493722
H         7.41389170688797    8.89727239897185   11.94999468767678
H         8.02108301259101    7.56363205186992   10.98055924596853
H         7.82086057775676    7.36012868982717   12.71746627433596
C         6.12703178617748    3.78205602455657   11.85012410264314
H         5.64151194917832    2.82416941611409   11.67337689444474
H         7.01143801204835    3.89207483030550   11.22097364722367
C         6.33697440944187    4.14128883138118   13.24669752641540
C         7.59428875108554    4.53756392008223   13.74312387741382
H         8.44424022525045    4.53789991720800   13.07626928129296
C         7.74013603671717    4.86345542268015   15.06858372207865
H         8.70753404770901    5.13921422729332   15.45896892794123
C         6.63836882017868    4.83771994151941   15.92128196676697
H         6.77624406169009    5.09833435519884   16.95968443582146
C         5.36821885593350    4.50173336376901   15.47994272652314
C         5.20165522586184    4.12452918215961   14.13371901444321
C         4.24376776504017    4.56619017678130   16.46894062606376
H         4.63837133110948    4.50764108556855   17.48024237064346
H         3.52903607209492    3.76063954020378   16.33627463818929
H         3.71467143254603    5.51497970216031   16.37935254978609
C         2.13981041822378    4.11065625192546   14.06802696091417
H         1.96572868741749    3.28027280770941   14.75056489664285
H         1.32558950736120    4.12362292234808   13.34206820930060
H         2.14211405055219    5.05402179930652   14.60764550415650
C         3.52568416761879    2.11066366534007   12.62218678615542
C         2.94950238024539    1.88457480496231   11.36383456850527
C         2.75806373259361    0.58363550506306   10.92561434340499
H         2.31182310963354    0.40883990976379    9.95852158260252
C         3.13661825036427   -0.48578474273174   11.71615334594143
H         2.98445284203177   -1.49600462507008   11.37006045396178
C         3.71303596362029   -0.25669194288752   12.95071129709344
H         4.01040001154062   -1.09268186459151   13.56545006759980
C         3.91927101404896    1.03323686456547   13.42426008894791
C         2.57800025519089    3.03521976579580   10.48352087272680
H         3.48476811089298    3.54858684510846   10.15431790566852
H         1.95494053933248    3.75190661665494   11.01991327186458
H         2.03485106234128    2.69008440484757    9.60775311508452
C         4.56130197168168    1.21631790714248   14.76312123037664
H         4.56185232663934    0.27788936225218   15.31166890423097
H         4.03344191963761    1.95816956324818   15.35627889041193
H         5.59634897608503    1.54018208702216   14.65176554903669

