59
CSD_code = LETSEJ | q = 1 | S = 0 | Stoichiometry = C21H28N3O6Ru(1+) | MND = 6
C         2.12055714381953    1.86162555241502    9.78209280341493
C         2.59280345098791    0.87716424217225    8.92715838971474
H         1.92656150180487    0.17215781551790    8.45606848379087
C         3.95251088171747    0.78548300916359    8.67276391428076
H         4.31231492861139    0.01665985912480    8.00774288400074
C         4.83841168803239    1.66730214767215    9.26242607623334
H         5.89402879028602    1.59614471752823    9.05648527870601
C         4.36472113413920    2.64292969612852   10.12355181424695
H         5.05703684372225    3.33316434643470   10.58133516765503
C         3.00960684194001    2.75554408330956   10.39660088415408
C         2.47864482790226    3.82705058686447   11.31489957353483
H         1.64678963303245    4.34544320884663   10.82568442579236
H         3.27649899302607    4.55291068903579   11.50819079684607
C         3.16487008769843    2.63562579471317   13.24940907832018
H         3.99385446217814    3.34315156891203   13.33246285537741
H         3.47001634006002    1.78603511593016   12.63723769580709
H         2.92174044068335    2.25750302343305   14.23583715956689
C         1.51232659791725    4.39408339438453   13.44996135112121
H         0.72716276477828    4.91451679128260   12.89237480917025
H         2.33067220714482    5.10830789148210   13.61046403507134
C         0.97406517143319    3.98635787558941   14.82540546586701
H         1.75782234878609    3.51445914819060   15.41777120132911
H         0.71833981645352    4.91485458746814   15.34143064813073
C        -0.30233241295907    3.13923240501940   14.82441823926562
H        -1.08481646530131    3.68674979569208   14.29015399260705
H        -0.62484896666493    3.01770364328940   15.86625154257141
C         0.61653447858484    0.90610479921412   15.04265143837544
H         0.04682369426743    0.57870384264538   15.91539625144605
H         1.51471517004669    1.40477117039345   15.39310815984784
H         0.91284282346781    0.03537219043228   14.45519116821235
C        -1.56583336633019    1.23293424505510   14.11697171580841
H        -2.03767483811028    1.30397918760443   15.10428725287378
H        -2.14836656123057    1.84228484272680   13.41585515203402
C        -1.57666601304603   -0.21136937951015   13.69016284523699
C        -1.88744374500053   -1.20428080361681   14.60973857643699
H        -2.12584310574415   -0.92623736668194   15.62539858833554
C        -1.91203629280163   -2.53900370259185   14.24694431855579
H        -2.15870870476406   -3.29347183650713   14.97587963472151
C        -1.61896272433632   -2.89239048997464   12.94385125783233
H        -1.63126178281356   -3.92799311225203   12.64392210587757
C        -1.31273069957815   -1.92115565196060   12.00459618266734
H        -1.09914254742594   -2.23300500451172   10.99628477947005
C        -1.29181455594663   -0.58017170110608   12.36845763495393
C        -0.56440140330140    0.07085060865979   10.18304925638928
H         0.34352330719963   -0.54113034692280   10.30269982339845
H        -1.34407206254876   -0.48363626543651    9.64706405384588
C        -0.23232151871765    1.35463652819320    9.42385886068154
H        -1.11060460074697    2.01398681358289    9.41544016532271
H         0.04831001995328    1.13986143969321    8.38888558806252
N         2.00690369766005    3.28358100911122   12.61843389612831
N        -0.19392937149037    1.80271582863373   14.20584590124208
N        -1.38029969234662    4.23372067992573   11.17660226627658
O         0.78967727615720    2.07795086469288   10.08440742731813
O        -1.04074218393547    0.44665847648881   11.47431178590296
O         1.54966386526439    0.57595571894855   12.25188294308706
O        -1.25879779016495    3.30940484042412   12.06716138350962
O        -0.38546244859231    4.46765405215223   10.51090304437128
O        -2.43104865529657    4.79337577171812   11.07733895773622
Ru        0.41971128043752    1.96638176117582   12.20593901746600

