73
CSD_code = LETTAG | q = 0 | S = 0 | Stoichiometry = C25H44N2OW | MND = 8
C         3.92564562693453    1.93532367863871   10.22525351813704
H         4.97166679794002    2.24525971019411   10.38761941478363
H         3.71127829952059    1.21189152723127   11.02218208839576
C         3.89574233112111    1.14335773456163    8.91260044704898
C         4.78818159637428   -0.10156970734888    9.04987860307100
H         4.43650734576034   -0.74355995313595    9.85560918551879
H         5.81625315279348    0.18414152681183    9.26486621114884
H         4.78127454596390   -0.67934422164389    8.12772564526553
C         4.43249551579879    1.99201759299295    7.75874066997197
H         4.41952379114495    1.42552179655551    6.82990802569174
H         5.45763501995685    2.29790623254315    7.95841245221540
H         3.82337263251325    2.88201531469879    7.62972807952322
C         2.46859157791215    0.68655084518923    8.59837602387970
H         1.79420182901497    1.54097870953575    8.58664938756164
H         2.12351374470648   -0.02357562555820    9.34729454603010
H         2.42845642165720    0.19886019246010    7.62666539141757
C         5.06903179171498    5.22815733902163   11.41179696145518
H         4.73401019314888    4.62719648206693   12.26690266681677
H         5.02199894837327    6.29444499045782   11.68297103257039
C         6.53228976697698    4.88066053643003   11.11465967286441
H         7.14047790013969    5.04506730968090   12.00645323362331
H         6.60121349192397    3.82603598364510   10.83795485409205
C         7.00900391596763    5.75078554457321    9.96267835098168
H         8.03007832859313    5.48490472438065    9.67946791454075
H         7.00920697314165    6.79347559516044   10.28154592395441
C         6.08250529548514    5.54627145706349    8.76847444565536
H         6.22429879260002    4.52667711629216    8.40271083258456
H         6.35245185310607    6.22532249944575    7.95994970236260
C         4.58114762947084    5.69337075464188    9.09146438387831
H         4.04291170805841    5.20857422747401    8.26651407340551
C         4.04227849978386    7.17365843989654    9.08116962777328
C         2.64357584907687    7.18075532711278    9.70118350713297
H         2.67861883914829    6.87120431015609   10.74390250847828
H         1.99857195527452    6.49288910516494    9.15577231456787
H         2.21424577546208    8.17908622404101    9.64382710874023
C         3.90642780240340    7.61510365091584    7.61484436336564
H         3.53283078037671    8.63628492304652    7.56963833455943
H         3.20652922703311    6.96789038110722    7.09206162100487
H         4.86141300538592    7.58072899826969    7.09635633813196
C         4.96445534733919    8.15600104491929    9.74846860388092
H         5.86907335082496    8.35754458666623    9.18847494883265
C         4.75292686588034    8.82518661211871   10.86863279876282
H         3.86877700899881    8.70266904454492   11.47065181226334
H         5.47243773322204    9.53681150917482   11.23964200339687
C         1.53272477885943    2.32881227396974   12.12587967560031
C         2.35319166036056    3.21588800247786   12.90343923345970
C         1.89544502078983    4.53765924541736   12.69022205921018
C         0.82245259895653    4.48445520701116   11.73778587468128
C         0.58902602410712    3.10935798427244   11.41604431732618
C         1.45085845906440    0.84275096583686   12.32871170631567
H         0.67816480267137    0.62439077066655   13.07002234910475
H         2.38884806022494    0.43409876326491   12.69884485589956
H         1.18745840885659    0.32751585890352   11.40761556358026
C         3.32286470399074    2.75783005554790   13.95644200595127
H         3.89108448112136    3.59124341934871   14.36684239333829
H         4.02932702218628    2.02592795796580   13.56179093135447
H         2.78183891025852    2.28683492075271   14.78056027442565
C         2.26302944385651    5.74523531333868   13.50644606186387
H         1.59921232206847    5.81363726819988   14.37205455735154
H         2.15464917227903    6.66784866078259   12.93728005496205
H         3.28608070875064    5.69473930435776   13.87708468635555
C        -0.12732380782099    5.59605187446161   11.38848143130658
H        -0.41006114311094    5.54857177947594   10.33692514897987
H         0.30647037518562    6.57455586287044   11.58282547474700
H        -1.03872117334310    5.50648089396587   11.98475015221463
C        -0.57762841901473    2.60861558320422   10.61166672187298
H        -0.45452945249022    1.55778588606734   10.36014047363746
H        -0.68197813570908    3.17164050099374    9.68388387095602
H        -1.50266878192011    2.72039348006899   11.18156142609519
N         2.12136427698172    3.93825956458242    8.91298476792958
N         4.20873060192416    4.94905743795144   10.28114713331738
O         1.50087473145109    4.10353529090835    7.89677673587153
W         2.69408549143533    3.76869180214818   10.56531043295333

