47
CSD_code = LETVIS | q = 0 | S = 0 | Stoichiometry = C17H26ClO2Rh | MND = 8
Rh        2.33911992096902    8.36013516579140    5.12360320050767
Cl        2.98068233981298    6.22485042535968    5.63811708462423
O         0.95685402486458    7.46283538562027    3.82951623328140
O         0.95539882004664    8.08918657376825    6.63301787691546
C         4.38553314985967    9.03508168317739    4.74000868716957
C         3.54490600778602    9.41000132945818    3.65657295970182
C         2.54934592449440   10.33606525426039    4.15850034106888
C         2.76752161912013   10.50222983104311    5.54815769746465
C         3.85547756051654    9.64132091386318    5.93388731147855
C         5.63821524155368    8.22169891481755    4.68675185973284
H         5.50094129157339    7.27057094580736    5.20158519584629
H         6.44437494453860    8.76532641540855    5.17894199397327
H         5.92589013802925    8.01643938290396    3.65930919636221
C         3.73984266898813    9.08644938903377    2.20923736134939
H         4.37682229420787    8.21444713679531    2.08788751320089
H         4.20090584997412    9.93485410152373    1.70003676499272
H         2.78449639461046    8.87841782290065    1.73167778744620
C         1.59069927341557   11.08860451470241    3.29273116316621
H         1.16827954234035   10.43667011807228    2.53088815465083
H         2.11428965755047   11.90400464659853    2.78964713365888
H         0.77556703387738   11.50901301487215    3.87656399259231
C         2.05510030804951   11.42804485583586    6.47953039020657
H         1.20219251146918   11.89673729301191    5.99595076037760
H         2.74150038928587   12.20854623076024    6.81106809824076
H         1.70242870370086   10.89011675010904    7.35821619141284
C         4.51292195500560    9.61408364426363    7.27760022153946
H         3.78831917063518    9.80309816540380    8.06571583017906
H         5.28669458309248   10.38340266885622    7.32637871475440
H         4.97473445901769    8.64582710711281    7.45519651805777
C        -0.30400685154208    6.44077726355910    1.68035805865392
H        -0.85482966455840    5.88840123556226    0.92294990029837
H         0.74827472423550    6.17709129102740    1.61568219371513
H        -0.40284375734110    7.50454338869465    1.47787606569561
C        -0.83725778195166    6.11343228042292    3.06757946846754
H        -1.88976589283751    6.39212986727044    3.15111612959747
H        -0.76424303338681    5.03915163376693    3.25222747709533
C        -0.05819083977097    6.81018632987794    4.17410888845720
C        -0.56099177143098    6.67262524804673    5.47271164118717
H        -1.43290410053391    6.05276018228160    5.60807365131755
C        -0.04313127659314    7.31931162577070    6.59149673537140
C        -0.73401470267527    7.08221017571928    7.92209855396817
H        -1.81516311656101    7.04646170583486    7.78503041274866
H        -0.48220888347794    7.90226615208880    8.59598963402532
C        -0.22924775390770    5.76330484468338    8.50745185628385
H        -0.50103686599149    4.93220307494431    7.86176315205418
H        -0.65908308085963    5.59900172594037    9.49306710164592
H         0.85408887079532    5.78578229337622    8.59382284546468

