54
CSD_code = LETVEO | q = 0 | S = 0 | Stoichiometry = C22H28ClIrO2 | MND = 8
Ir       -0.04134631847180    9.02616555760284   13.34234914863504
Cl       -2.25290569868804    8.37140041588681   12.99137241434879
O        -0.84568401257589   10.94781569994762   13.54172802580008
O        -0.48999993310201    8.77255043263205   15.36592508755602
C         0.77760998281904    8.39360423414010   11.39363923854235
C         1.52274615171711    9.53361336597008   11.80420056851854
C         2.18447981824559    9.21842696499100   13.03860705498384
C         1.89649789546926    7.85583175742563   13.35645839538602
C         0.99434089438832    7.34822439663599   12.37535317414153
C         0.04906440460867    8.21888197272255   10.10075614306396
H        -0.83269076982106    7.59865021085183   10.24244430588142
H         0.69973617742296    7.74006174487156    9.36678100349134
H        -0.27250747167769    9.17734751213394    9.70205316962333
C         1.68873507234460   10.80956440954668   11.04800993052596
H         0.87532022711068   10.95405147651722   10.34251851064873
H         2.62923776557334   10.78859163114586   10.49456890950241
H         1.71064459468490   11.66051138838683   11.72505091676262
C         3.18523730747350   10.08196818742642   13.73364179994224
H         2.91281511460827   11.13210629395257   13.65641897040981
H         4.17037739677808    9.95286333392916   13.28059609392005
H         3.25776304320096    9.81941883256439   14.78636224140720
C         2.49643033462737    7.09519497816628   14.49178710233067
H         2.42929744968564    7.66312613542637   15.41783554911576
H         3.55106668611927    6.90213363119260   14.28800966055592
H         1.98818423573530    6.14605687311811   14.63514003367791
C         0.55871852864105    5.92571656486139   12.22357578298434
H        -0.40430356925001    5.88442641717099   11.71353968922531
H         0.42892830651047    5.46088131892062   13.20228464710325
C         1.60052186448122    5.12731490673363   11.41594359952077
H         1.73340110362807    5.59991540782931   10.44103766740757
H         2.55701253819747    5.15324675709697   11.94209458813613
C         1.14203026148071    3.70945937693688   11.24180494377063
C         1.51415427071616    2.72639126550845   12.14915248333926
H         2.16932252902576    2.98004678580461   12.97101886529387
C         1.05942421942719    1.42731204030143   12.00828050769440
H         1.35931160838533    0.67201675722030   12.72027442462735
C         0.22168120851148    1.09551154735231   10.95761397718961
H        -0.13339929791521    0.08163577014702   10.84626932798897
C        -0.15869308644460    2.06934034764710   10.04997245150314
H        -0.81280846853408    1.81657580645646    9.22823766851091
C         0.29768026702595    3.36702937876323   10.19322597842346
H        -0.00193357863396    4.12418287058033    9.48242623100740
C        -2.16883783903930   12.74145002649162   14.30262393598816
H        -1.78242950240807   13.19353397541486   13.39371151339899
H        -1.95992908612806   13.38149807454359   15.15570393206258
H        -3.24677330806848   12.62679346765648   14.21058348927311
C        -1.55184407234398   11.37450078647427   14.49486965565488
C        -1.79422570300873   10.72866708863896   15.70849100162770
H        -2.42892061132367   11.22525679926258   16.42418360707073
C        -1.23713122609263    9.50256978686608   16.07298143288701
C        -1.53003345145399    8.99387911869533   17.46648200552572
H        -0.90386912261379    8.13274056834865   17.68157210902100
H        -2.57414349253457    8.69198421417195   17.51468805504611
H        -1.35986163845366    9.77326133696910   18.20424897998956

