103
CSD_code = LETWEN | q = 0 | S = 0 | Stoichiometry = C42H53Cl3N2O2Ti | MND = 6
Ti        2.27401416244808    0.73168860569746    5.76920866539677
Cl        3.60724189437434   -1.07494173756755    5.58888299717715
Cl        1.80342785946011    0.14038928462411    7.94875481111657
Cl        1.23963116973907    2.93816933895299    6.04114449643153
O         2.90719235844839    1.40510660099952    4.25338194340231
O         0.68857092713060    0.20378711996528    5.29953782664942
N         3.91839296138809    1.80366064823802    6.57591023789190
N        -0.87313251515397    1.12663902237685    7.34958195397735
C         4.16289194885437    1.80247486758583    4.23501904657803
C         4.92928254122860    1.98811903039686    3.06496203022560
C         6.23834888723463    2.40857705400290    3.21521703415054
C         6.84856417683163    2.63268713493841    4.45310755326538
C         6.09522330066601    2.44046422102440    5.59439092110584
C         4.75988360524781    2.06083942435079    5.48917771922540
C         4.31113417016285    1.66605707734613    1.71336739989913
C         3.92518810029086    0.17943567236241    1.71262242492464
C         3.06926851911054    2.54540107744458    1.50926747878781
C         5.26736981119862    1.91475252357186    0.54311998474768
C         8.30533841527745    3.06728589935316    4.50097346977527
C         8.46344281590435    4.37840901084757    3.71834899797966
C         9.17865452846279    1.97412475805603    3.87108038911850
C         8.79463997529037    3.30959077472466    5.93171356449597
C         3.99230378548783    2.41685070327052    7.69812930723808
C         4.77549640917770    3.60949046828117    8.02225678431085
C         4.82063992796735    4.69200973270150    7.14099021602629
C         5.52156660891822    5.83229280818214    7.47948006775847
C         6.19344300077820    5.90551540472632    8.69042839836651
C         6.13607836721877    4.84365191353216    9.57843727691523
C         5.41628981256584    3.70785103340667    9.25667153806126
C        -0.58336042476881   -0.09099619575398    5.28235300375730
C        -1.17447554248931   -0.85104438170144    4.23672117063748
C        -2.49892562678234   -1.21728856037866    4.35589755929226
C        -3.31440458375122   -0.86392330726504    5.43675459757435
C        -2.75621003230357   -0.08285997963625    6.42465824056370
C        -1.41901303537353    0.31243105211445    6.35957282659788
C        -0.34400238515589   -1.21323206355249    3.01198062434925
C         0.81514498002601   -2.12934570777119    3.42871163286443
C         0.19183993691843    0.08375515110775    2.38658257356147
C        -1.16048859495163   -1.94520374922753    1.94025058958954
C        -4.76215045897778   -1.32693646109625    5.46008469129946
C        -5.49304632703061   -0.75965861021734    4.23534680601273
C        -4.79421160302154   -2.86135732705274    5.42300789586565
C        -5.50405107485701   -0.86482096767020    6.71718459917253
C        -1.21490044288583    1.14596545944693    8.59623194235979
C        -0.61866978704105    1.95472024395179    9.61564984214118
C         0.36667245575168    2.91940853054093    9.35503779363518
C         0.95534810014147    3.60107960823543   10.40142351354168
C         0.57112322605516    3.35597798269802   11.71161763742426
C        -0.41862389078104    2.42084095361884   11.98000827099174
C        -1.00839868866493    1.72663447813864   10.94548376776593
H         6.83235195965383    2.54916262180906    2.32838924427519
H         6.52455225123413    2.53903507515170    6.57733729187801
H         4.81746259921473   -0.43650231763259    1.80805824863641
H         3.42207208093876   -0.07794662305438    0.78235021158476
H         3.26534037539339   -0.04996996733651    2.54690039382715
H         2.36300344682370    2.41230152742388    2.32447025082111
H         2.57299816716637    2.28666938206079    0.57610242242078
H         3.35661093735497    3.59487376178265    1.46985800771669
H         6.15102816739271    1.28485571838570    0.61531357588219
H         5.57246665336803    2.95807263826279    0.49761327176044
H         4.75933581307876    1.67313265638275   -0.38838894833365
H         7.82340771005834    5.14781311983020    4.14484703591523
H         8.19639628900471    4.25293172292996    2.67316156241524
H         9.49500238548489    4.72063033090792    3.76629903746744
H         9.05189572816960    1.03771558245365    4.40952435282737
H         8.91203960752381    1.80656666040889    2.83155086191177
H        10.22774807120912    2.25939037107674    3.91333961521137
H         9.83007182034337    3.64345005809386    5.90848414408834
H         8.75118980550360    2.39649992994464    6.52037136497241
H         8.20215775752771    4.07883047128259    6.42304683089753
H         3.35912615600700    2.02875162847457    8.49720013842422
H         4.28563625266574    4.63711805113741    6.20391699056665
H         5.54689662673447    6.66794131806692    6.79608948827974
H         6.75361016502414    6.79295766171795    8.94463530160992
H         6.64881296779181    4.90392793411405   10.52700684699863
H         5.36718398943152    2.87775440908917    9.94631111972119
H        -2.93979769082565   -1.80256780917624    3.56827912706397
H        -3.35107210419752    0.28049516167018    7.24583502527229
H         0.42888253267518   -3.04193244828621    3.87973958369299
H         1.47456819805704   -1.64234604423700    4.14803306902184
H         1.40645066973884   -2.39901839976973    2.55617108430051
H         0.84902197852157    0.61221987678507    3.07797894303926
H         0.75625850005623   -0.14566775308244    1.48604111546917
H        -0.63457356948135    0.74152782809712    2.12031544804719
H        -0.51939280830885   -2.14574654006941    1.08479233810983
H        -1.53072965549465   -2.90001381228172    2.30641231711599
H        -1.99635336318672   -1.33960232103743    1.59668437073956
H        -5.05113069620151   -1.11522527121245    3.30917786585700
H        -5.44718372997656    0.32711306162787    4.24013483930336
H        -6.53780083349476   -1.06174781659416    4.25111024669479
H        -4.34127315033111   -3.24711935638031    4.51451661418684
H        -5.82205685415041   -3.21452680151023    5.46610113336753
H        -4.25249454798674   -3.26945386083340    6.27335631804868
H        -5.54645391274970    0.22044567767672    6.77173930260134
H        -5.02952232243892   -1.25279040765886    7.61548148265754
H        -6.52565506878548   -1.23754970188206    6.69097212647189
H        -0.09575061559476    1.74640969225391    7.02259461610063
H        -1.97904973847361    0.44549062629754    8.91861331914464
H         0.67178977502530    3.13666276674161    8.34268880781165
H         1.72238874413978    4.33212662958494   10.19298088040663
H         1.03880151835006    3.89310301010355   12.52334428041236
H        -0.72207040684272    2.23250845341522   12.99893876695311
H        -1.76738235785643    0.98781621513563   11.15795420227133

