67
CSD_code = LETYAL | q = 0 | S = 0 | Stoichiometry = C17H30B11I6IrP2 | MND = 6
Ir       -0.06493147096245    5.78990571719580   14.30024998827822
H         1.10557396633844    4.95472322576224   14.82109387353971
H        -0.54314420903870    4.52832709148044   13.57362158982257
I        -2.25825429637736    7.28681144930670   13.30986014496744
I        -2.92998840315308    9.14962608461584   16.95394591166097
I         0.86651992917250    8.07421038687753   15.69396268540300
I         0.31709737865859   11.73135128388990   17.53166282939890
I        -3.36732249472177   13.27351325856655   16.19345585437428
I        -4.95863634769026   10.43371129360369   13.52508905992197
P         1.23548199610654    6.17214340798689   12.36896297089256
P        -1.25985499621073    4.96438050614277   16.15156076452557
C         2.61969583062301    7.36276020017184   12.38601897622662
C         3.50638374522814    7.26703883218300   13.45539074629182
H         3.35058881754867    6.49809758783850   14.20065978054501
C         4.56699539817885    8.14496996203722   13.56963263101140
H         5.24466356157235    8.06509312189475   14.40595197108735
C         4.75037807086208    9.13309605249329   12.61537485682063
H         5.57061209194839    9.82879154423522   12.70694811745767
C         3.88009031088788    9.22632303664960   11.54290687851357
H         4.02527753911145    9.99041855234303   10.79321698942912
C         2.81784938997526    8.34588718896051   11.42507522705363
H         2.15073934068993    8.43355366617796   10.58027604911051
C         2.15757043043139    4.66576715085316   11.87217180526702
H         1.44284993460640    3.86602756087019   11.69180987901260
H         2.81685278364477    4.36331082451221   12.68169880919953
H         2.74339999470019    4.85770713923526   10.97374672143610
C         0.35269575600913    6.51253913083780   10.79583440521998
H        -0.10766824035464    7.49846337477554   10.80011043696528
H        -0.43471788383429    5.76567718023029   10.69783391938049
H         1.03436799396704    6.42711855544882    9.95077879512386
C        -0.94913344566969    3.18661198628078   16.39816445944949
C         0.22528061380546    2.78881066465813   17.02866318308865
H         0.92953371301742    3.53501108112856   17.36564686137439
C         0.49804733274799    1.44740535540103   17.21828924716585
H         1.40853774113074    1.14816152032138   17.71613284547091
C        -0.39415436187673    0.48748272798399   16.76893260915444
H        -0.18269075196911   -0.56070264884141   16.91870605160777
C        -1.55303821579319    0.87618913180404   16.11945365294761
H        -2.24564726338560    0.13058388756921   15.75765058440680
C        -1.82907120875315    2.21903194151388   15.93009694469753
H        -2.73031792500918    2.50991114836430   15.41273609023580
C        -0.90286174021153    5.62805364057454   17.82121360385019
H        -1.34676158319984    4.97249780795313   18.56876151271125
H        -1.33484219798032    6.62232603207479   17.91480819500907
H         0.17034688796278    5.69849931995806   17.98234596761462
C        -3.08659994178705    5.05898533579756   16.13150317664422
H        -3.47376385711801    4.73358185997816   15.16821672545881
H        -3.39196843239042    6.09029488748826   16.29799768969528
H        -3.49005952599470    4.43633973695553   16.92855564042900
C        -0.40532199367746   11.67328416104453   12.81624529038336
H         0.09504683228602   12.17000758844182   11.99689833643895
B         0.54138245654414   11.18138093840773   14.14060648495513
H         1.70162646819524   11.36361169327228   14.14325548617233
B        -0.14817040558766   10.01063557218466   13.01473779288829
H         0.56081785742279    9.42313495013574   12.28544542347647
B        -1.69672371050355   10.63051037717580   12.44203586148070
H        -2.01653595406487   10.45593506913236   11.32553438749082
B        -1.97486069208793   12.19088818627246   13.22262891375858
H        -2.47460328385709   13.06228619562378   12.61622924312935
B        -0.58995159170488   12.53188057953511   14.27410776663862
H        -0.18085376352953   13.62840139676546   14.35863328924555
B        -0.26920271399635    9.73299569025349   14.75659591764498
B        -1.65180494916254    9.39057345454118   13.70739498316677
B        -2.81069606448558   10.74413668945381   13.82490755752539
B        -2.11638755267373   11.94929491155318   14.97898924594607
B        -0.52963907801057   11.30646703814939   15.55626557026013
B        -1.92912361642023   10.19565572376873   15.29981074036977

