105
CSD_code = LETYUF | q = 0 | S = 0 | Stoichiometry = C44H54Cl2N2O2Zr | MND = 6
Zr        1.57618277610369    0.14566702063389    4.14317366517088
Cl       -0.15845816221017   -1.33288890555434    3.55519435021632
Cl        0.92826265355597    2.00634621383944    2.83878171758805
O         2.95206091857693    1.23959719436874    4.90396808120229
C         3.29725981345873    1.77660743520634    6.02627331236433
C         4.59739545269651    2.33907482625618    6.18992641231958
C         4.95775649210472    2.79610782037338    7.43414557501900
H         5.95139244650102    3.18755411831891    7.57306625293243
C         4.09545188546443    2.79588924001270    8.54621110102256
C         2.80667400375323    2.36792981564278    8.35275884920221
H         2.08221178665745    2.39570921870852    9.15106081556953
C         2.38002296164458    1.85582774645177    7.11327096802653
C         1.01094694418076    1.48685780611803    6.95390942829406
H         0.34365120175128    1.79962851448430    7.76774916391072
N         0.50711218648657    0.88094493707506    5.93058296412325
C        -0.89289741710368    0.65654488294606    5.87439025018652
C        -1.61881556703866    1.33937821563010    4.89741277919949
H        -1.10421570334060    2.03315003174458    4.24306011312703
C        -2.97965545160121    1.13649458180294    4.76673703433341
H        -3.52593688518709    1.66904915638179    4.00383430753415
C        -3.62944873138001    0.24766180803094    5.60502996709617
H        -4.68974353088908    0.07478381905106    5.50166448305012
C        -2.91071463567088   -0.42865519493821    6.57292914366564
H        -3.41859569242787   -1.12832274151475    7.22129453152749
C        -1.54463402691580   -0.23608637191256    6.73502639835769
C        -0.80283512431596   -1.01658105972282    7.78823129853992
H        -1.52375262274843   -1.64809421865320    8.30964152904993
H        -0.38399194604886   -0.32977078534564    8.52676108072018
C         0.32388332942438   -1.89302977770540    7.19634982695905
H         0.18965292714214   -2.92070821714885    7.54757407141553
H         0.23768412109717   -1.91466622276630    6.10312049200309
C         1.70643395915488   -1.45075440065527    7.59920398202265
C         2.01690404936434   -1.21206714696740    8.93354789950738
H         1.24622366796710   -1.32765283399505    9.68199670233791
C         3.29290128145758   -0.85326106857887    9.32874632113854
H         3.50027612022513   -0.66886378113175   10.37202491425235
C         4.30411651835708   -0.75759858721051    8.38879554833496
H         5.30752275092479   -0.49509349941069    8.68589040872070
C         4.02729122539334   -1.01653209947485    7.06107888482304
H         4.80404183744277   -0.96044281744343    6.31198994452829
C         2.73283812980204   -1.33984974429576    6.65476129581736
N         2.49530373789245   -1.53083179728921    5.27961213958023
C         2.94939340831032   -2.59578298398071    4.70764685259186
H         3.37639363652721   -3.38730662584313    5.33788622607171
C         2.95893516109267   -2.84536231127655    3.30624038431389
C         3.18369837061301   -4.16260502155854    2.86092006622355
H         3.27677805056852   -4.92778561945423    3.61502854420861
C         3.25224410466985   -4.46352398656603    1.52533654488577
C         3.09834621288714   -3.40501000865887    0.61229226988927
H         3.14279602171561   -3.64323420698181   -0.43653841835742
C         2.89826098591918   -2.09451831255685    0.97912634925006
C         2.83316870781901   -1.77880046332702    2.36741572860131
O         2.74759027828184   -0.54940888009640    2.78060170278249
C         5.50368294798649    2.43291952090996    4.96697433420104
C         4.78363563814175    3.26516659257688    3.89284060602380
H         3.86374550811592    2.77814919779792    3.57001707806263
H         5.42823708386884    3.38865278251950    3.02519047700099
H         4.53554057260182    4.25030573007216    4.28342328149655
C         5.80972098022640    1.03448261567688    4.40735676172615
H         4.89444962837508    0.52606015312287    4.09791372307881
H         6.32356996068441    0.43290415132311    5.15612411723155
H         6.45909611906040    1.12480579925323    3.53858189377063
C         6.83728222984298    3.11837575776484    5.28394635285387
H         6.67944221785590    4.12600495027257    5.66128240280409
H         7.42785892757888    3.19131308156005    4.37332434726211
H         7.41296537148679    2.54844980679395    6.01031784960607
C         4.62258763645533    3.29153348524574    9.88404574238985
C         3.56489142875273    3.22349448752862   10.98860021809912
H         2.72036203647677    3.86919210920872   10.76090503996581
H         3.99942140176626    3.55805606960747   11.92834369389950
H         3.20907664901341    2.20498569752569   11.12485138591283
C         5.07645128497692    4.75113935170161    9.74361514238270
H         5.89301427483315    4.84736361640764    9.03386086009471
H         5.41583758518577    5.13208260456595   10.70448311346679
H         4.25049523955616    5.36911786846527    9.39873348114978
C         5.80999067409197    2.41642319202141   10.30936025611325
H         6.60514124962358    2.43789745300848    9.56959261984896
H         5.48720250348159    1.38552154736528   10.43531208811997
H         6.21586931945599    2.76928070569486   11.25509976974961
C         3.49364630375328   -5.86771100868869    0.99342680712461
C         2.34191002610697   -6.26598254989132    0.06047809761123
H         2.28741544350483   -5.61577758448909   -0.80768212799515
H         1.39386315072208   -6.20756058821687    0.59022343900553
H         2.48100422865813   -7.28651011258472   -0.29016220611821
C         3.57779728080080   -6.90838710041693    2.11339721474748
H         3.73989832078843   -7.89374922244471    1.68135709695467
H         2.65330421089022   -6.93901061540523    2.68494434404394
H         4.40693406437290   -6.69672045296317    2.78444757531965
C         4.82068406172600   -5.88232987861480    0.22154897491329
H         4.79640596166334   -5.19521948290397   -0.61954600682516
H         5.02260423052432   -6.88121937621278   -0.15919190554646
H         5.63880435136884   -5.58996245370628    0.87650870621598
C         2.68262759595844   -0.98085724780967   -0.03893370776725
C         1.26185199808707   -0.42900167715607    0.15587933793572
H         0.52771399238794   -1.22317438602939    0.02772198838953
H         1.06250800889651    0.35296077670515   -0.57386821660599
H         1.13577947528003   -0.00196932374540    1.15356804363842
C         2.80856185293798   -1.47571029222763   -1.48426769092299
H         3.79875442787187   -1.88404872713566   -1.67663333944040
H         2.65461299549827   -0.63812952639275   -2.16104984322215
H         2.05674755761314   -2.22789410275903   -1.71168768031595
C         3.71483391134398    0.13878716024191    0.16683623719701
H         4.72512295476073   -0.26334703500616    0.10645179850704
H         3.58366911717863    0.61898478148497    1.13513447018206
H         3.59441138777227    0.89434698717134   -0.60653229866037

