67
CSD_code = LEVBOD | q = 0 | S = 0 | Stoichiometry = C26H34O4P2Pt | MND = 4
Pt        3.88941253983033    2.86594828818788    1.36489444085507
P         4.93836190051307    0.78899231118705    1.35860747371726
P         1.72536829596146    2.29578248312355    2.05358158635617
O         5.78243186196159    3.62978595105109    1.16808683669169
O         1.35289781974684    4.64196320361615    2.07203808664232
O         1.69569834249960    3.79437588257075   -0.52456767900015
O         5.65806056316355    7.68348863972536    0.19923666089394
C         2.73381538878630    6.43451314050391    2.76236078766823
C         2.41363883675834    5.24888617854464    1.88254670750143
C         3.36809945930264    4.84129774991308    0.86579280837041
C         4.64663898121181    5.62025368108055    0.70499837811199
C         5.80496692048171    4.90378925476799    0.89887446678701
C         7.18280177381545    5.48725534414318    0.77991393195577
C         2.83387569622295    4.22107625794480   -0.37941550736375
C         3.79376687260154    4.20318700643611   -1.56579658477643
C         4.64879103638394    6.98933093418979    0.24665082638261
C         3.33149569583632    7.57093566079247   -0.24607745423114
C         4.01620203597136   -0.41421870067899    0.35371655544665
C         3.18132362689617    0.13275337686934   -0.61739899791058
C         2.46941834834090   -0.68883177273350   -1.46998662176398
C         2.58243357153255   -2.06579508847458   -1.35180771248315
C         3.40581125633873   -2.61390216179485   -0.38250643303956
C         4.12568370426159   -1.79275814125896    0.46911369766716
C         6.49169907026223    0.86643056497711    0.39028504048451
C         5.53423200947530   -0.10091459930318    2.84992384803967
C         1.63688195755758    2.84901528284091    3.78739283512576
C         2.84824001211451    3.05939712443326    4.43652862712478
C         2.87464985446903    3.44612019925340    5.76364482565571
C         1.68552030012660    3.62492470408361    6.45204860276115
C         0.47651310816939    3.42116636069350    5.80721667527239
C         0.44901618670362    3.03345430647685    4.47894158420992
C         1.69927302381572    0.47681873020192    2.48272834828990
C         0.07327918413903    2.30610989726831    1.28022832793784
H         2.39136982268566    6.21839459465052    3.77285816903932
H         3.79550047253065    6.66121172527995    2.76186031818539
H         2.18636873884790    7.30379066947616    2.40335130929219
H         7.28387035254658    6.02146920048598   -0.16199266336130
H         7.34497104148357    6.21354432704847    1.57331519422825
H         7.92318403136277    4.69243976089924    0.85023335428916
H         4.02427341740967    5.22177954648133   -1.86942452426087
H         4.73046946667491    3.70628514262596   -1.31136913865598
H         3.31528814813998    3.68157714831637   -2.39242419332617
H         3.48001745661901    7.92697147301240   -1.26499543118394
H         2.51151623057079    6.86063339925756   -0.22706805145564
H         3.07959243207621    8.43910408067430    0.36022178880362
H         3.08352516950423    1.21400550668892   -0.67765293900898
H         1.82223769478835   -0.25924598685647   -2.21975771046914
H         2.02411573301946   -2.71240921855846   -2.01215523905934
H         3.48812895412072   -3.68683960096360   -0.28848946424659
H         4.76216141249554   -2.23073509995763    1.22361812940036
H         7.19625807488432    1.51800451597715    0.90236294326890
H         6.91138458359329   -0.13335442333895    0.27659783079100
H         6.27978234646935    1.28652236039226   -0.59131296908266
H         4.70275366931289   -0.46714561204421    3.44765157804277
H         6.18180554617769   -0.93009285597829    2.56911919543259
H         6.10707363506022    0.60883906787857    3.44624714949825
H         3.77899239829709    2.93202660646101    3.87853959195509
H         3.81898663624043    3.61508862135109    6.26085222332282
H         1.70143510437130    3.93220516661406    7.48749666530383
H        -0.45024744657875    3.57187680557716    6.34197132413934
H        -0.49463848527167    2.89811883268742    3.97317738385579
H         2.60786263456353    0.19967370678262    3.01241301388722
H         0.84684739620592    0.27080399319151    3.13034010696364
H         1.61442053453315   -0.13125894869722    1.58516505927755
H        -0.60658206211715    1.71476383490147    1.89160456955535
H        -0.27824221266714    3.32301285209999    1.15638636173838
H         0.17561783671544    1.84750675697389    0.29856409445955

