110
CSD_code = LEVCIB | q = 0 | S = 0 | Stoichiometry = C49H49ClO8P2Pd | MND = 6
Pd        6.75439947754603    8.22257156153420    4.50468926406515
P         7.56516368434796    9.60720574801527    6.12410942413376
P         7.56499411234531    9.23213117472253    2.62440120009142
Cl        9.37315962460099    7.85426264488955    3.97123037065364
O         8.62091175561688   10.38800413811168    2.32603558089287
O         6.72863297121161   10.98004456945585    6.21396294617176
O         6.32945526443802    9.95302619890396    1.74915739259399
O         7.26119022334731    8.96243696995750    7.57901118634536
O         9.02319047566234   10.23637635878596    6.36389514883668
O         7.97559607152142    8.13638142464988    1.51599707097436
O        11.06084146334209   13.46889736133598    6.18409694494905
O         4.37216922378629   13.08625247829974    1.68402012588191
C         5.33303664732496    8.26517899024783    0.39301443305677
C         6.54221949323164    8.26747768167744   -0.44056802791773
C         6.39901218880902   12.47236421586710    2.88052672874130
H         7.06685056160361   12.79138100853949    2.09757545672186
C         4.24126883854432    7.44332804511557    0.13089503543475
H         4.26693612892218    6.79321390235616   -0.73113215972629
C         9.21843025143012   11.24710615932110    3.22866471676661
C         7.61784202471423    9.59886645871974    8.76001898107911
C        10.06267090143102    9.26270924699825    8.29677594620795
C         5.28623644707127    9.10238826023671    1.51134095293454
C         6.12566596487552   11.49598818351801    5.07192918862015
C         7.80934686870857    8.26371665182216    0.15312445169652
C         6.94900050001932   11.91635632625585    4.03009172137761
C         8.42126474268538   11.91386823697993    4.15524142371623
C         4.10057933632913    9.59675780829947    6.32699905567742
H         3.23898485865723    9.12292292227563    6.79458804209203
H         4.95603325335574    9.45439116735653    6.98053021825657
H         4.30292633852741    9.08734031911098    5.37600682798282
C        11.16110425748615    9.19256929102114    6.13871528039726
H        11.12934746993782    9.42365669244453    5.08847217408252
C        10.07307871046986    9.52602109539257    6.92650736014117
C        10.37569277080625   12.80526914462069    5.21050975234377
C         6.45746586804070    8.26970048848480   -1.83094908204815
H         5.48030112487847    8.28078920657750   -2.29132645908276
C        10.60429106960496   11.47622798353572    3.17673396157170
C         8.84438206150459    8.28073218146514   -2.01469026055591
H         9.73781065252762    8.28867870339365   -2.62046335486440
C         8.99799630231700   12.70246543713135    5.14544801089627
H         8.34936879194138   13.20164103167319    5.84676991472793
C         4.21450567438833   12.17055145291387    3.82313521972175
H         3.15408347542119   12.28532950143774    3.68178962402807
C         8.95327255949210    9.71956285004706    9.14860461239024
C         6.13684783073547    6.46734060516916    3.45968277324828
C        11.61333317669827    9.45452471901665    2.06464780358793
H        12.14931427406376    9.11064101481271    1.18177403599931
H        10.65210925755345    8.95647790398151    2.11207175294170
H        12.17585486348606    9.15262631401725    2.94474737769714
C        11.14840457401132   12.23844961038490    4.19791090822907
H        12.20805607542568   12.41424410184630    4.25537933896593
C         4.73087377970829   11.60396816081435    4.97904897898782
C         5.50688974991474    6.50344508065980    4.70922528628930
C        11.16157891696506    8.60706476139349    8.84924319164753
H        11.15570160269125    8.37211939194438    9.90349352469659
C         4.21153632442469    9.05974215608435    2.38876979096075
H         4.22324963677960    9.72354704389610    3.24300129186248
C         6.59724448247669   10.03672521918138    9.59075793100510
H         5.57469433731817    9.91196489702941    9.27060470285089
C        10.81406905565089   11.40974787711023    0.69741664942283
H        11.45517870449320   11.13242465269255   -0.13699448628916
H        10.67624749294830   12.48980709293244    0.68076460541590
H         9.84975705697610   10.93446703220221    0.55489432567311
C         5.02419616964912   12.58890308918756    2.76751547421961
C         3.15301514628816    7.42451342961445    0.98541758919702
H         2.31786912828327    6.77309089011214    0.77522314891202
C         6.30856122384294    6.63972603264200    5.85017691667324
C         9.22536613856133   10.30363799482536   10.38559386092590
H        10.25542014310407   10.41913953672505   10.68786865033935
C         3.81985179221903   11.09243809334005    6.08886685245867
C         3.14061397133575    8.22398673186215    2.11756967278407
H         2.29778171281800    8.19337996077673    2.79240165763013
C         7.59500734092067    8.27943854226243   -2.61413073975468
H         7.50820195481091    8.28706550675250   -3.69029070744559
C        10.33786263663407   13.91558254124971    7.30548496359979
H         9.65538093568146   14.73232820320903    7.04696776182523
H        11.08197001678992   14.28178495590993    8.01133538689957
H         9.77002918499340   13.09957154480965    7.76429891633702
C        11.46587063164526   10.97796886051884    2.02116749137404
C         8.95091889697126    8.27004083238848   -0.63658229535554
H         9.91126385757224    8.25537828928658   -0.14656147003904
C        12.24026531670246    8.54249884467480    6.70953016838060
H        13.08167203172924    8.26654225239079    6.09356504229410
C        12.23469317971058    8.23842445482624    8.06109049746080
H        13.07060212880014    7.71795259819558    8.50439057369078
C         4.08436953447524   11.89883600376354    7.36802153053416
H         3.82512207137273   12.94371940518733    7.20982790156413
H         5.13032024373394   11.84548208941492    7.65405864408016
H         3.47711141371862   11.51327590072147    8.18476079748951
C         2.33528861124644   11.24192522448883    5.73639440847757
H         2.07937375787793   10.66262356562445    4.85238848512740
H         2.07137192041616   12.28309936150869    5.57034508690485
H         1.73353318498788   10.87689447151298    6.56653864018389
C        12.87385783452895   11.58604278481067    2.05179577809726
H        13.43096802914338   11.25457354541888    2.92413524155041
H        12.83548821963394   12.67303850373297    2.04176246075471
H        13.41858212401765   11.25822009012148    1.16873971648548
C         8.21015063726058   10.74970730600580   11.20924796263878
H         8.44752646885518   11.20454317906949   12.15906087022773
C         5.12950003094460   13.35198986266748    0.52614142261616
H         5.81924511953603   14.18834326899582    0.68030730503399
H         4.40785148079591   13.61950692934939   -0.24403513294397
H         5.69189715056780   12.46819101127395    0.21058243274493
C         6.89041097643167   10.61201908537786   10.81356668482591
H         6.08931181023348   10.95319534219802   11.45130389654953
H         7.29436617907969    6.16645782586675    5.86589609614992
H         5.83984189009440    6.75289121916688    6.82131437413689
H         7.11618187657199    5.99089702690998    3.37304211336107
H         4.42610014222288    6.63168483830252    4.77300374954783
H         5.53086407805526    6.42628006428402    2.56107393620962

