91
CSD_code = LEVGIC | q = 0 | S = 0 | Stoichiometry = C44H40O4P2Pd | MND = 5
Pd        4.86944823035565    1.62213446080075    3.49237726252297
P         2.66958316003800    2.15153452881979    3.01004353303631
P         5.30903071668304    3.17364180974031    5.12578482880032
C         6.76002543965389    0.74560847704635    3.34359646247312
C         5.79767629929782   -0.23720782634240    2.95812159434581
C         4.98504740608161    0.23040558820671    1.89129056705204
C         5.43606212166086   -1.39999452846292    3.72510470087923
C         4.87200697592025   -2.51841072086588    3.01833187316293
C         3.93162565228773   -4.65559322407627    3.18016227705705
C         5.60183531331755   -1.44233927363860    5.14202736501467
C         5.94045932934818   -0.06079008832757    7.05448472979065
C         1.55189619689994    0.92965550041619    3.75403032787528
C         2.15305835210239   -0.23950068527230    4.21476080739774
C         1.38791245186670   -1.24956279216293    4.76862646648158
C         0.01523951672771   -1.09224769919894    4.87175290192875
C        -0.58814688387424    0.07193083531190    4.42001771504375
C         0.17162906966005    1.08311288565368    3.85930866269014
C         2.30453458359904    2.06378860141272    1.21918531702444
C         1.11712345447862    1.56239730715429    0.70236193632191
C         0.91355259293203    1.54092597848860   -0.66673900438163
C         1.88508286278574    2.02190806319726   -1.52771051036636
C         3.07523950026583    2.51607256085617   -1.01879520732381
C         3.28513244050972    2.53022204532813    0.34660202231669
C         1.94403637259666    3.78093950082533    3.40614374591040
C         1.23511880173876    3.99730545375038    4.58306721404231
C         0.78983112209744    5.26622687616769    4.90573601394070
C         1.06247623739810    6.33633674462119    4.07107019614866
C         1.77186930285663    6.12969107501168    2.89949281864715
C         2.20717815960511    4.86143679262296    2.56702241584587
C         5.51919222335100    4.81077091396691    4.35249366779834
C         5.82793493683347    5.96816171049837    5.05961241675606
C         5.96599792501543    7.16897533870262    4.38738373779902
C         5.82284532815776    7.22030452487071    3.00990665823182
C         5.56712170583439    6.06189182005436    2.29494617968441
C         5.42060292934623    4.86254632247329    2.96625738294537
C         6.73928339422923    3.19690921662414    6.25436171621045
C         6.63653851630056    3.23012855120678    7.63900418274388
C         7.78426032543834    3.23599859499560    8.41333296588467
C         9.03230197643522    3.20825243194492    7.81432542911482
C         9.13810268453437    3.17782183879532    6.43202357579949
C         7.99628773677572    3.17092440622454    5.65528135789337
C         3.89356345672192    3.29387870509329    6.26526907990510
C         3.25085661498631    2.07904267313996    6.49826997089195
C         2.19171952290936    2.00475564342051    7.38402534290033
C         1.76017577790501    3.14954989219273    8.03622422368610
C         2.38035241087762    4.36350979269700    7.78824194852463
C         3.44336954625415    4.44215281952332    6.90456400394032
O         4.75228022741491   -2.60759062769355    1.80438474269673
O         4.43770961058074   -3.51475719447153    3.83671827024964
O         5.68479657943034   -2.39546393375065    5.88339492246544
O         5.59278625002152   -0.13544054248871    5.68737838527851
H         7.25412868189984    1.29408783475148    2.53393851759706
H         7.40123741125877    0.54471903396227    4.19576003759118
H         4.14784241645796   -0.38328281751137    1.57325640071682
H         5.47550517088910    0.75985911387216    1.06920961384885
H         3.70812030445406   -5.38030572702886    3.96001460751289
H         3.02622120674798   -4.40773130961526    2.61677096503942
H         4.67009134365641   -5.06069004261567    2.48353086334568
H         5.24282551069191    0.60465644050601    7.56457554151058
H         5.88647980063904   -1.06387562924908    7.48809222489303
H         6.95870381585181    0.32760932211724    7.15818941689456
H         3.23316185497515   -0.36187859694147    4.13462761632869
H         1.86849316043166   -2.15172733342690    5.11632502953715
H        -0.58867865689008   -1.87542684544384    5.30587664750351
H        -1.65896852809768    0.19175453408365    4.50285266854477
H        -0.30372264426234    1.99104758299239    3.51273112260316
H         0.35833803816674    1.17156612998350    1.36371280015448
H        -0.00841904536003    1.14139215009477   -1.06288609107401
H         1.72104056132348    2.00046466423819   -2.59468498885809
H         3.84149260452297    2.87870451823894   -1.68856594656627
H         4.23001049483037    2.88627788158421    0.74856838932370
H         1.02956208998920    3.17163703335796    5.24792247083723
H         0.23181072541360    5.41808042781657    5.81794919288857
H         0.72074067499823    7.32734984367177    4.33012416496282
H         1.98547223582104    6.95963631410741    2.24207379694729
H         2.74525013789322    4.70532219886374    1.64312293615028
H         5.98488084834438    5.92382948371336    6.12832583955466
H         6.19631800900802    8.06896982661698    4.93862227237532
H         5.93179171949052    8.16183692585102    2.49241732132983
H         5.48903739170078    6.09750647227139    1.21803610247560
H         5.24699546183189    3.92795947709836    2.42368966764097
H         5.66450376841263    3.24669864817114    8.11138721747698
H         7.70244468235572    3.25865801507709    9.49020047803013
H         9.92361735985800    3.20720516673532    8.42387055969969
H        10.11139393580340    3.15458893646364    5.96423570895542
H         8.06302427845900    3.14179496958309    4.57417357242137
H         3.59725949753685    1.19441929311545    5.97084756959061
H         1.70117045317064    1.05849035146063    7.56020888865484
H         0.93493115361688    3.09760467020707    8.73113386032358
H         2.03532781982413    5.25710621272917    8.28793126531621
H         3.90741979602365    5.39643368340528    6.70757248286707

