83
CSD_code = LEVNAD | q = 0 | S = 0 | Stoichiometry = C31H40BCrN3O5Si2 | MND = 6
Cr        7.40199373427054   10.40917191378967    6.06682242005716
C         8.74632632681223    9.17781032854541    6.47880434904060
O         9.57454127979017    8.41244345980614    6.70947487791763
C         6.33038737954408    9.76166629959671    7.45751216729850
O         5.69276049188746    9.44065451067281    8.35851489965297
C         8.15885680529638   11.51293233247691    7.38371691208568
O         8.73517896168208   11.97089692324406    8.26302092323176
C         6.79156363754482    9.11923362671300    4.85635277722765
O         6.56400666480906    8.22333679670572    4.17129937912990
C         8.28170612982649   11.33732880917379    4.71751091883891
O         8.68321102605477   12.02787178585120    3.88280622133221
C         6.14822519578689   11.80307822786037    5.45051543951178
N         5.18666878470545   11.92203509056490    4.48551193436181
C         4.63951085483627   10.85503554388069    3.74827015548252
C         4.98114037737061   10.71515896887856    2.39715497618027
C         4.44649908957941    9.65989170978097    1.67721227112542
H         4.71786698011241    9.54300777938741    0.63756070983518
C         3.58410011617800    8.74175832164007    2.26109927483356
C         3.26219502550637    8.89843911638421    3.59919103279617
H         2.59767948159728    8.19015328522902    4.07311628988614
C         3.78192663277146    9.93685618797347    4.35984566635417
C         5.94677120892436   11.66318668159163    1.75240250998907
H         5.66405240656532   12.69668325112002    1.93926457522640
H         5.98721716407341   11.49283188960319    0.67933280565715
H         6.94660958467108   11.51088618985109    2.15894584759766
C         3.04399434230534    7.58953397693008    1.47174790310494
H         3.71791282230619    6.73701618042793    1.56067530704042
H         2.96014572630341    7.84427932568353    0.41778451880987
H         2.06784637355661    7.28677442720963    1.84353969014139
C         3.40248357132815   10.03583960273156    5.80787949546197
H         3.83854811638393    9.20273731068290    6.35798018439760
H         2.32065118511106    9.97505732671246    5.91989977067054
H         3.75053934241308   10.96299108777268    6.25599455013222
C         6.18792197006207   13.25939550238169    5.70397469249713
N         6.87913819677177   13.79448491594568    6.62247593917099
C         6.86636447704404   15.12370052121439    6.97746571807304
C         5.68245991824496   15.80470665315324    7.30384705560338
C         5.76854780101097   17.11175202157889    7.76128525151329
H         4.85689214742496   17.62993078093897    8.02647952291444
C         6.98146384602616   17.77239908039946    7.87887384303824
C         8.14317554661284   17.07845391311756    7.56129673377276
H         9.09894036941190   17.57331328891522    7.66238643897441
C         8.10874022111292   15.76387247130494    7.13878799379675
C         4.33829538569404   15.14215096833102    7.21082374112051
H         3.92358539750254   15.25460965937113    6.20846086838642
H         3.64849756096234   15.59421874130710    7.92104332118045
H         4.41426327206671   14.07719094610544    7.42637612061018
C         7.04099588878715   19.20217178825164    8.32410210191486
H         7.94592158816141   19.39122604896558    8.89725765917108
H         6.17727140974368   19.45572692475523    8.93434305681876
H         7.04853676317830   19.86376476634133    7.45659654791291
C         9.36947473454179   15.01518006634804    6.83141081318524
H         9.35038837629498   14.60840467928843    5.82049651885457
H         9.46958514532824   14.17485916066790    7.51656000252147
H        10.23764491847292   15.66193605998378    6.93595452766481
B         5.17920053484668   13.38690400694372    4.48767215766413
N         4.57364754808909   14.32942351674855    3.64358723710967
Si        2.90133182968372   14.08357570196498    3.09513122517205
C         1.99580632430462   12.99740296727994    4.37114767171426
H         2.12204693509358   11.94336580534441    4.15165777598486
H         0.93019845338631   13.20437912096496    4.36081655532261
H         2.35347193210959   13.17216570538739    5.38110389133507
C         2.79803712381144   13.26886724847888    1.37490162282079
H         3.44366968304748   13.74790573046977    0.64674511924402
H         1.78121818171965   13.32993343085155    0.99867858280271
H         3.06624385606889   12.21755874087435    1.41514060173475
C         2.01275433426386   15.76906903788262    3.07666822363962
H         1.96632916068922   16.20942616177321    4.06772483541627
H         0.99102174587580   15.63379533588086    2.73605568957826
H         2.48231373463488   16.48792782715896    2.41573191017129
Si        5.54275381035957   15.73943466880588    3.13930346387263
C         5.28569566513988   15.97264159981483    1.26393099135957
H         5.65331661243686   15.12182853277048    0.69809589740988
H         5.83708451336475   16.84481939976634    0.92758597893536
H         4.24598139244912   16.12298949011106    0.99738161625410
C         5.07704137240072   17.31515899796255    4.10040579647105
H         4.01966553966600   17.54804298569345    4.04577397943721
H         5.61916780658709   18.16415690712482    3.69484091901696
H         5.34676949558815   17.23187371565799    5.14903842555733
C         7.38076802490732   15.35111121807406    3.42748113282018
H         7.65671735403886   15.55084860918249    4.45676513499330
H         8.01078424231383   15.97343841279128    2.79928095735679
H         7.62634103871625   14.31502789723303    3.21489338373192

