38
CSD_code = LEVTIQ | q = 0 | S = 0 | Stoichiometry = C15H19IIrNS | MND = 8
Ir        3.85003331116412   10.97255009630711    9.23932140074171
I         5.74334495647577   12.42650120837700    8.10923884452025
S         5.32722832026097    9.16675062734196   10.06165571260029
N         4.18851600981534    9.52925468018940    7.84096716762395
C         5.00376132095105    8.64704218521751    8.45977315873038
C         5.47328462119697    7.50373168339850    7.81133133602577
H         6.13088909339939    6.83142633392397    8.33741553259631
C         5.07953879174946    7.28704002998586    6.51051487767140
H         5.42439465129335    6.41579431984696    5.97491761320567
C         4.23639684487404    8.20585056506795    5.88186224773397
H         3.91921965048146    8.05958767971235    4.86274586524179
C         3.81973154484369    9.31891976463085    6.58002808851382
H         3.18451451063410   10.06758688983887    6.12690148382571
C         3.43395764568708   13.93165111929370   10.85326002733158
H         3.89270175577763   14.47673455919755   10.03136262199246
H         4.18301610460753   13.79348611743457   11.62885835175538
H         2.62496864914187   14.54217163891403   11.25863923617373
C         3.26548079591831   11.19975187843886   12.53579573777584
H         3.63602241999272   10.18504029213676   12.66776915032691
H         2.43630548812656   11.35218434550945   13.22946804010332
H         4.06283096342473   11.89135510553931   12.79645305965490
C         1.58398763220216    9.13645176794911   10.85417150542591
H         2.37092155017888    8.64998614690933   11.42766438908014
H         1.30765237583416    8.48479344734341   10.02739685454585
H         0.71383223909684    9.25013783169365   11.50374480874281
C         0.62891623745565   10.55244763838941    8.17965009856091
H         0.72209016840073   11.04578603957777    7.21475686284187
H        -0.39509764007060   10.68825877538825    8.53226851401617
H         0.79645315458349    9.48573696630555    8.03915914063468
C         2.14561686862969   12.43289843759011    9.15380620172763
C         2.88694742674147   12.61985864607710   10.38935559366911
C         2.79222744943609   11.42326918226550   11.13790163473370
C         2.03120683082606   10.47266584234331   10.36348852210547
C         1.58098218934527   11.12559900163610    9.17723537303300
C         1.84619571702920   13.52858167944485    8.18382209923463
H         2.74317263583418   14.10173260957977    7.95636533407653
H         1.11239478647930   14.21037431909067    8.61741370607515
H         1.44366292818256   13.13771054811293    7.25261980735105

