82
CSD_code = LEVVUE | q = 0 | S = 0 | Stoichiometry = C27H46BBrCdN6 | MND = 4
Cd        0.17848678452176    4.13194845853388    1.01703262533650
Br       -0.31208306396759    4.13124610308837    3.39372994486852
N         1.28834511835080    2.62003425224747   -0.05307759059832
N         1.50495349508458    2.87180537811615   -1.35755211735384
N        -1.19741452076760    4.13118596113322   -0.65015866267344
N        -0.62453247064347    4.13194973084855   -1.86878059374305
C         2.08957359792535   -0.54199378766407    1.72221561969218
C         2.91089420637225    1.70103190728987    2.51727786104157
C         1.86370037481014    0.96652316559853    1.67171194373878
C         1.90520548062520    1.48560942597089    0.26683496528356
C         2.54488793959515    0.98596544730198   -0.86600988317942
C         2.26826525525195    1.89131573544200   -1.87976463255624
C         2.73494945595856    1.79981061912688   -3.29834610494808
C         2.19819378011027    0.52029733263848   -3.94477853077817
C         4.26450844800461    1.83572647719802   -3.34776342270170
C        -4.30982909399313    2.87047059829277    0.36432372248384
C        -3.44255532973803    4.13094108358839    0.37245183367955
C        -2.51676616447712    4.13144282457446   -0.80344127524721
C        -2.81301819628464    4.13231608001896   -2.16637116481412
C        -1.58764884940237    4.13260809751281   -2.81343786890116
C        -1.37070099457025    4.13374183823735   -4.29388004438177
C        -1.98256251362243    2.87439996614035   -4.91270049809197
B         0.91161155551134    4.13229748188940   -2.02947917386402
H         1.18501308778977    4.13254042944539   -3.17362252972517
H         1.37834244596714   -1.05864496531460    1.08182326070315
H         3.09662560462669   -0.78839797458890    1.39356865729601
H         1.96446119315726   -0.90337268927793    2.73992823901809
H         2.86402337370416    1.36211874418200    3.54915997145719
H         3.91057120832060    1.51181349764589    2.12994236636084
H         2.72691329888568    2.77674515047550    2.49965236474494
H         0.86972030807091    1.19207693699146    2.08754559815416
H         3.12552979182610    0.09030421318945   -0.94500830404421
H         2.35337558500536    2.65410165785764   -3.85887904675555
H         1.11124069905992    0.50508595542339   -3.90848230840299
H         2.51111799957366    0.46573901063961   -4.98493743818676
H         2.57232547781099   -0.35802952493296   -3.42502321052799
H         4.68512843733356    0.98760278290500   -2.81353082177433
H         4.60785170381305    1.79960026878789   -4.37907372378061
H         4.63660419218583    2.74969775869108   -2.89028507153919
H        -4.95517243760788    2.85414988848343    1.23931582504587
H        -4.93263532927698    2.84266079719105   -0.52726830494627
H        -3.68517500886887    1.97940715450820    0.37876850625869
H        -2.83322131543992    4.13064583800235    1.28917494486932
H        -3.78277418913474    4.13270043178383   -2.62040694905606
H        -0.30011097255831    4.13248375542102   -4.50202817623955
H        -3.05654814729383    2.84842581556584   -4.74684797567864
H        -1.79785087757880    2.85502565860206   -5.98432627113201
H        -1.54400314456718    1.98337934209105   -4.46897903713905
N         1.28540587115854    5.64576443877074   -0.05337551561405
N         1.50433659307514    5.39294140670444   -1.35725433716711
C         2.08162981519828    8.80972708636341    1.72022317716189
C         2.90389122699073    6.56815404748780    2.51907153644578
C         1.85726507787425    7.30079010828615    1.67104575295404
C         1.90166281007166    6.78044491059579    0.26673296857381
C         2.54341087907833    7.27917003929062   -0.86535878692144
C         2.26856468839845    6.37302534757720   -1.87888987048802
C         2.73847148289384    6.46291820546089   -3.29651105289144
C         2.20750647283539    7.74408819817417   -3.94438635311011
C         4.26802638548312    6.42184162380292   -3.34239612966514
C        -4.30996600861195    5.39132622779779    0.36523556355679
C        -1.97913890500061    5.39606805638390   -4.91002386394788
H         1.37117953940775    9.32532931249864    1.07783608836509
H         3.08937076021129    9.05628684345226    1.39350526199010
H         1.95414815327341    9.17170731095056    2.73754095409990
H         2.85523786457898    6.90829588580642    3.55046063723536
H         3.90401408465198    6.75771483171392    2.13302768707322
H         2.72093041827475    5.49222418663950    2.50257946202552
H         0.86274365482971    7.07461879214506    2.08535101325902
H         3.12422538326442    8.17474949941418   -0.94404943363138
H         2.35530197113308    5.60982401310313   -3.85777718429168
H         1.12054823862479    7.76316954905677   -3.91021330602723
H         2.52262407067637    7.79714178720004   -4.98396100817497
H         2.58373889327084    8.62129694283313   -3.42427989096065
H         4.69020459141414    7.26839188044870   -2.80688585388511
H         4.61393594716075    6.45710318607867   -4.37287689859395
H         4.63592728294371    5.50649200668106   -2.88427816066203
H        -4.95520329842953    5.40702018030020    1.24031734669749
H        -4.93289016259248    5.41964060421512   -0.52625768678119
H        -3.68540873927309    6.28245156825704    0.38017053169449
H        -3.05299762959129    5.42474042728285   -4.74375073673808
H        -1.79470391950613    5.41707544447783   -5.98166588536943
H        -1.53791077321758    6.28493193985479   -4.46462354348713

