82
CSD_code = LEVVIS | q = 0 | S = 0 | Stoichiometry = C27H46BClHgN6 | MND = 4
Hg        0.20107837375155    4.14426196784230    1.12786368216390
Cl       -0.37076434992034    4.14426013056955    3.28572417360109
N         1.39410534305396    2.65736617296555    0.03338985876614
N         1.56498636446794    2.87712517042472   -1.28840204021309
N        -1.13469289440588    4.14427268292723   -0.62901021724544
N        -0.54029887209534    4.14427289112337   -1.84203544881464
C         1.30575418981175   -0.39973956332291    1.79183640719972
C         3.41126978486934    0.89713528599934    2.27911155072665
C         1.98035864716923    0.97196164710822    1.74301075253363
C         1.98049415482196    1.50321696748055    0.34593895081038
C         2.54417824344247    0.95776141551970   -0.80421818226902
C         2.25639576649764    1.85227728637117   -1.82286019197224
C         2.65667551415905    1.71459023190176   -3.25829597539350
C         2.26933384732933    0.33343804145315   -3.79069401622484
C         4.16447641204734    1.94501152581796   -3.39373725459936
C        -4.27537329437579    2.88417818976750    0.31112675501202
C        -3.40872219143147    4.14427686729629    0.34070212877012
C        -2.45457790356068    4.14427724278761   -0.80988433477327
C        -2.72271986850917    4.14428044604764   -2.17598020307503
C        -1.48523605325157    4.14427842984180   -2.80046426204906
C        -1.24107336802913    4.14427376537331   -4.27660300774045
C        -1.84013036580128    2.88309563275892   -4.90410951089794
B         1.00129393563975    4.14426262899894   -1.97154664576037
H         1.31194078744739    4.14426176524549   -3.10493887492350
H         0.28994514343491   -0.33646173822848    1.40807976772673
H         1.85958962610776   -1.11823549121056    1.19136381272990
H         1.26629011319603   -0.76114622056608    2.81656805184125
H         3.40763423644880    0.54912296292532    3.30920687254263
H         4.00577383080241    0.20906527910779    1.68174497718158
H         3.87930017630245    1.87848958324447    2.24695141153909
H         1.40603872802930    1.67051747192954    2.36900145681762
H         3.08582720625028    0.03796102068192   -0.88480496810599
H         2.13488498693971    2.46687063954258   -3.85112743849900
H         1.20414866507633    0.16000485434112   -3.65702196484505
H         2.50170077295755    0.26419658211235   -4.85089515326482
H         2.81388183782376   -0.44883383714891   -3.26894357252674
H         4.71485490872375    1.20348063352622   -2.81977140590432
H         4.46563083772443    1.87159181914901   -4.43611251617797
H         4.42998159306613    2.93237094609542   -3.02342449184433
H        -4.93953254775579    2.86629754296621    1.17183354909112
H        -4.87868360186071    2.85821340729207   -0.59382267766673
H        -3.65079923293252    1.99405890460096    0.33755150561344
H        -2.81825612390304    4.14428412977902    1.26859358438495
H        -3.68437232977976    4.14428352430940   -2.64661593771713
H        -0.16690215861687    4.14431637537870   -4.46443451776553
H        -2.91630281062675    2.85455245668851   -4.75441486324323
H        -1.63925311896558    2.86394434914601   -5.97279095313954
H        -1.40561444582140    1.99403588886549   -4.45293018787518
N         1.39412105608366    5.63114837750088    0.03339415941152
N         1.56500413120584    5.41138961836252   -1.28839752210352
C         1.30577580755382    8.68824265889483    1.79184648046581
C         3.41129665824971    7.39137583186017    2.27912021366103
C         1.98038578677421    7.31654409941707    1.74301978788644
C         1.98052190404725    6.78529031408618    0.34594741172722
C         2.54421633889471    7.33074136650496   -0.80420673135162
C         2.25642780396826    6.43623024137879   -1.82285123619710
C         2.65671393060860    6.57391844088118   -3.25828508628124
C         2.26934253317809    7.95505950808115   -3.79069094817616
C         4.16452101774910    6.34353237169566   -3.39371672140156
C        -4.27538906525836    5.40436428311162    0.31111621956079
C        -1.84023332631150    5.40538590071900   -4.90414278691370
H         0.28996612599470    8.62496035568109    1.40809224986432
H         1.85960690666344    9.40674052006620    1.19137216708150
H         1.26631260196169    9.04964957774196    2.81657806424862
H         3.40765980548775    7.73938583981107    3.30921631311806
H         4.00579735714473    8.07944999771112    1.68175514075731
H         3.87933172771439    6.41002385537707    2.24695772904865
H         1.40606851857381    6.61798575022762    2.36901014075869
H         3.08587587597682    8.25053586440299   -0.88479035523118
H         2.13494534878132    5.82162290082059   -3.85111642817062
H         1.20415138915578    8.12846533554012   -3.65703080578159
H         2.50171932849697    8.02430482348800   -4.85088966851232
H         2.81386460779285    8.73734630889316   -3.26893567803961
H         4.71487930697668    7.08508096636197   -2.81975452384280
H         4.46567857054153    6.41695068216193   -4.43609118416457
H         4.43004868338188    5.35618241016425   -3.02339468129842
H        -4.93954731227834    5.42224462825529    1.17182379853771
H        -4.87870115108213    5.43031301685418   -0.59383244737853
H        -3.65082638404840    6.29449180985249    0.33753158250448
H        -2.91640958954461    5.43384134251424   -4.75446041599025
H        -1.63934707597129    5.42452984214976   -5.97282266499787
H        -1.40579771421703    6.29449325259962   -4.45298000731584

