82
CSD_code = LEVVAK | q = 0 | S = 0 | Stoichiometry = C27H46BClN6Zn | MND = 4
Zn        0.27357546116985    4.13471399379264    0.81069645197740
Cl       -0.28954791310438    4.13464135011171    2.88223666008810
N         1.36264478768266    2.68716271027013    0.01793507930015
N         1.57337110147957    2.87614381207157   -1.29835194717671
N        -1.07673099619079    4.13431540020030   -0.64213583176962
N        -0.51179353077146    4.13480784123164   -1.86439024233916
C         1.22026499413857   -0.33673739180800    1.84327268496496
C         3.28452368152788    1.00535128999893    2.38005182053239
C         1.87460826826232    1.04443509519305    1.78688381503031
C         1.92500218713215    1.53883020582901    0.37848773747294
C         2.51871707920628    0.96205687616658   -0.74269660481096
C         2.27038599950086    1.83445816862786   -1.79054184686390
C         2.70544157030266    1.67341542065659   -3.21282971850321
C         2.36317910160158    0.27239242961534   -3.72305100131373
C         4.20991228645664    1.93749909971747   -3.32199494226616
C        -4.18665608969251    2.87373265879777    0.38065055598841
C        -3.31936514451752    4.13386216185639    0.39012084491958
C        -2.39794264523395    4.13436436513400   -0.78517375088558
C        -2.69906032391953    4.13490464793298   -2.14577949226613
C        -1.47760646095900    4.13518535784891   -2.80118574947597
C        -1.25732819519602    4.13584432049594   -4.28051456822408
C        -1.86630554972627    2.87512245108669   -4.89931497649270
B         1.02374122802668    4.13475644512577   -1.99578907276217
H         1.34325209638732    4.13475829079921   -3.12870740581193
H         1.80721024991101   -1.06246989290230    1.28424513985217
H         1.14589516111027   -0.67189825405096    2.87475306923451
H         0.21926873234094   -0.29962788478758    1.41977064674608
H         3.73599731258574    1.99420843003011    2.34750354241861
H         3.24412545791038    0.67868238871077    3.41613620164298
H         3.91554132634304    0.31631203876943    1.82227389081243
H         1.26817289497593    1.74781659103185    2.36716272504597
H         3.05382567250755    0.03608043711863   -0.78659406351067
H         2.17774162074850    2.40172464083450   -3.83093450567877
H         2.61703114232283    0.18744971484433   -4.77712226314044
H         2.91828029655532   -0.48428580758199   -3.17531206418211
H         1.30056633952583    0.07360034015098   -3.60519537509544
H         4.44397831026805    2.93973546211247   -2.97091908246566
H         4.76474834898132    1.22345096419560   -2.71815782654869
H         4.53532164699896    1.84615730799341   -4.35558223116987
H        -3.56161359763399    1.98382463756537    0.39198940537077
H        -4.82783197073267    2.85585440925049    1.25836017121603
H        -4.81359280027678    2.84673046306424   -0.50823960909010
H        -2.70600977141436    4.13366570456561    1.29725107564949
H        -3.67136645544015    4.13507797923796   -2.59377290608335
H        -0.18514387125045    4.13596392337086   -4.48225885343482
H        -1.42628165769693    1.98522448874026   -4.45511951525711
H        -2.94015241670683    2.84811756605957   -4.73337084705375
H        -1.68159786349886    2.85602114766713   -5.97086575247596
N         1.36177937802647    5.58279846637089    0.01775224282557
N         1.57348325288155    5.39329725746354   -1.29830419220857
C         1.21811650011672    8.60715451560971    1.84184626330457
C         3.28217894201222    7.26558749969245    2.38068778014866
C         1.87270553560682    7.22605194848839    1.78651053109718
C         1.92416274560787    6.73110176383411    0.37834856300975
C         2.51893143162791    7.30731424379976   -0.74256455695051
C         2.27122009208033    6.43459726738900   -1.79029306528680
C         2.70772282850515    6.59490539429077   -3.21221792561668
C         2.36626597639011    7.99575425348749   -3.72345056743431
C         4.21225815139449    6.33047777705605   -3.31968972282104
C        -4.18703522882165    5.39373342684320    0.38145561763394
C        -1.86633881792084    5.39710737100632   -4.89817815951944
H         1.80535854918584    9.33273309085131    1.28293020927470
H         1.14295741738715    8.94274300536178    2.87313022906802
H         0.21743084413526    8.56972360903796    1.41763748398894
H         3.73381079869067    6.27677924082679    2.34888407121156
H         3.24097716184983    7.59268134392867    3.41660616534599
H         3.91350704053942    7.95448350507696    1.82308565786424
H         1.26595024916833    6.52282269832347    2.36663959340660
H         3.05433767014290    8.23312354112157   -0.78636226218933
H         2.18054173566519    5.86639350911729   -3.83052338893557
H         2.62127434424600    8.08017178190758   -4.77728463698352
H         2.92091200195802    8.75258074215105   -3.17545399733415
H         1.30356258174129    8.19479186687117   -3.60683613012983
H         4.44579862473115    5.32845238269567   -2.96765426658263
H         4.76661768239200    7.04484794052292   -2.71579652071524
H         4.53872357019833    6.42103019018741   -4.35301345427413
H        -3.56225749773485    6.28381955451640    0.39335622980373
H        -4.82820703584312    5.41086285936716    1.25918318899260
H        -4.81398989892061    5.42111220339081   -0.50741002727046
H        -1.42636469206718    6.28661460031981   -4.45315234719818
H        -2.94019218079380    5.42391859182375   -4.73224355559746
H        -1.68159685617652    5.41719876052361   -5.96970452204185

