83
CSD_code = LEVWUF | q = 0 | S = 0 | Stoichiometry = C41H33Br2NO2P2PdS | MND = 4
Pd        0.14271419932478   -0.01138531686657    3.93885543914778
Br        1.82601581634101   -1.53271113962565    4.74305420777245
Br       -3.98270262886211    3.30604783217195    5.33100853399643
S        -1.80574197977742    1.82656294620317    1.84953711313786
N        -1.92095512787055    1.69885990104803    4.39998859809828
O        -3.80702845956351    3.52766503601968    0.64394812480131
O        -4.84547807887443    4.23863828735364    2.51312924187657
P        -1.39127427886849   -1.67511177861149    3.87557025325927
P         1.52663198896877    1.76383523803709    4.10789259309809
C        -1.24817190402869    1.23189067770462    3.39380909485069
C        -2.89939179051539    2.53575660902531    4.02294744435789
C        -3.02332210784859    2.75227189929124    2.67255390403431
C        -3.98511538120085    3.58140861527187    1.97768488752613
C        -4.70964377022314    4.30330071196321   -0.12589377251726
H        -5.74058210253182    4.02270960398761    0.10116139040558
H        -4.47472004129977    4.09617646952050   -1.16681853745461
H        -4.58028874153470    5.36571799204364    0.09311621910211
C        -1.16609248078205   -3.14634548775814    2.84866126593553
C        -2.14624075999296   -4.13347466544372    2.78696167932044
H        -3.05722170090346   -4.02272229270122    3.36063840676226
C        -1.94953934305450   -5.23921078564614    1.98199490016594
H        -2.70378506360972   -6.01114846226655    1.93537958789680
C        -0.78801900459528   -5.35736890799583    1.23287053651223
H        -0.64035388206347   -6.22511370952875    0.60718755420140
C         0.17758823403612   -4.36559039855373    1.27810965754552
H         1.07693262040028   -4.45670760549869    0.68782653544936
C        -0.01106761817042   -3.25685211837187    2.08339618361099
H         0.73990230092909   -2.47305401045762    2.13068408629687
C        -3.09557892597615   -1.16283266342933    3.49876106396865
C        -3.98705095070429   -0.74515541152129    4.48085254601432
H        -3.72958676477782   -0.84561252934588    5.52615308902463
C        -5.20093106568307   -0.18774913155025    4.11850902876966
H        -5.88404947757559    0.14918302495917    4.88404986521698
C        -5.53015914441221   -0.04006756836786    2.78122218123737
H        -6.47089161402665    0.41248011654559    2.50495657377078
C        -4.64798580432655   -0.46244337878200    1.79874799362390
H        -4.89891313274711   -0.34340152962165    0.75476412188564
C        -3.43257939760101   -1.01485415522145    2.15462111754416
H        -2.72574123348086   -1.32317468906107    1.39287149000661
C        -1.44574978317938   -2.18732214382973    5.61626453970293
C        -1.50042105566157   -3.49964932209613    6.06224459453110
H        -1.54840277743362   -4.31371167508840    5.35342195413928
C        -1.46450935369457   -3.75832393518059    7.42259035056723
H        -1.50011555775693   -4.77943236621129    7.77224496513151
C        -1.37048581194464   -2.71834607186725    8.33096898771446
H        -1.33672300750901   -2.92945024298329    9.38941942825713
C        -1.30379435908960   -1.40577212307399    7.88675891217149
H        -1.22108582195474   -0.59682978438240    8.59805931473556
C        -1.33284101024148   -1.13710414096517    6.53223659939053
H        -1.28121798231813   -0.10427997697420    6.16456305448147
C         2.53185895074554    1.73500794012303    5.61701584981563
C         1.86572080303662    1.25408296276176    6.74387812908696
H         0.83444394550801    0.91193502709424    6.64450019289705
C         2.52021792738889    1.17963771420608    7.95675561375708
H         2.00676175974898    0.80067330860551    8.82771897101436
C         3.84664693325848    1.57337186333217    8.04534342038588
H         4.36528034383249    1.50696721411555    8.99004471281587
C         4.51494911195961    2.03086213286169    6.92250407545166
H         5.55397639311049    2.31731033228608    6.99207527827043
C         3.86358551214534    2.11344913321453    5.70343903119959
H         4.39632407859145    2.44705877840128    4.82546539536769
C         0.71582192750732    3.39012864684341    4.13863119167999
C         0.21382896742664    3.89655385445860    5.33425983354014
H         0.44764331616685    3.40296796382177    6.26786155911482
C        -0.59336071373352    5.01926791312041    5.32703627915187
H        -0.99359427627161    5.39869828298406    6.25523622514986
C        -0.91163769746109    5.64049325368943    4.13000921872445
H        -1.56108462537237    6.50296753231892    4.12549962321551
C        -0.40880247677620    5.14422904154725    2.93816758470964
H        -0.65904518460145    5.62226370169332    2.00195160868035
C         0.39610849898726    4.01982897382144    2.93796902801975
H         0.76735671000016    3.61803557362191    2.00366011188674
C         2.60199198140883    1.82117279207235    2.65293239809626
C         2.48066431589193    0.77314793670687    1.74288311239544
H         1.75585275643108   -0.03039613461836    1.93432773014621
C         3.26169893743731    0.75382564917241    0.60184150215161
H         3.17186453485888   -0.05936197776937   -0.10286018435669
C         4.15908522959320    1.78245276970096    0.36470439438252
H         4.77361720941422    1.76674968641836   -0.52308780175569
C         4.26249876976284    2.84069563465654    1.25477071656882
H         4.95071040492153    3.64897188375361    1.05493971272573
C         3.48246337742277    2.86858703221623    2.39593717132319
H         3.53631739609727    3.70706814042091    3.07745141342177

