53
CSD_code = LEVXUI | q = 0 | S = 0 | Stoichiometry = C28H20NiS4 | MND = 4
Ni        6.83632238217242    2.95413316341719    9.31280857128278
S         5.61271931531302    2.67889724021268   11.05253316809225
S         7.82767198379271    4.61246740749358   10.24439727865091
C         4.89853722312606    5.25780728422438   13.86523652055755
H         5.14938089789738    6.15359266728818   13.31707629808829
C         4.15309457190631    5.34105750691894   15.02487894794691
H         3.83623601963719    6.30793965535574   15.38709718446331
C         3.80917827475076    4.19244625667313   15.71980362185887
H         3.23097727938974    4.26300734553573   16.62891284286191
C         4.20194267348184    2.95372069259249   15.23992998142095
H         3.92942684498326    2.05492919236118   15.77307669280599
C         4.94187997935877    2.86260142534090   14.07674079570355
H         5.25075561695524    1.89907210559590   13.69895598608648
C         5.31207874972488    4.01453066686558   13.38473444028045
C         6.08559804321905    3.90990585669263   12.14717406810557
C         7.11791868803186    4.75976783144643   11.79741731507991
C         7.70229435956017    5.76025458712610   12.69066885636598
C         8.06361228036173    7.01282293592195   12.19724079460634
H         7.88752340326042    7.23956763870939   11.15613356564696
C         8.62555765143290    7.95794973501899   13.03376230813731
H         8.89207586652521    8.92867890630522   12.64263098926094
C         8.84660865408152    7.66247215942297   14.36886025825626
H         9.28538261739483    8.40180186465992   15.02204344997851
C         8.51209456342519    6.41125603096474   14.86183891596119
H         8.69858257582080    6.17011454432497   15.89784736637611
C         7.94483996446779    5.46367496849746   14.03258249550657
H         7.70336463535170    4.48377508689647   14.41591453233845
S         8.06261417076077    3.22776923739748    7.57494978230349
S         5.84690475372634    1.29360038832416    8.38343901716963
C         8.77567657780720    0.64889504859295    4.76217909079555
H         8.52481779290096   -0.24690636949123    5.31030953900505
C         9.52109090640186    0.56564809514966    3.60251529518417
H         9.83789940354105   -0.40123963644144    3.24025650572292
C         9.86502402982567    1.71428645982892    2.90759823740339
H        10.44322729966242    1.64373165726691    1.99848254479066
C         9.47225188549261    2.95303010947868    3.38747839973086
H         9.74479328108811    3.85183508757008    2.85435151093736
C         8.73237091412848    3.04414598756786    4.55071248070435
H         8.42356340228334    4.00768045685676    4.92855453808847
C         8.36222844285106    1.89219220399335    5.24275815807776
C         7.58901340443007    1.99680671869734    6.48051624510294
C         6.55658567487071    1.14698988700314    6.83031180228629
C         5.97207274081970    0.14661009742810    5.93703315087366
C         5.61075004868986   -1.10595130838779    6.43045604209838
H         5.78685550535736   -1.33269052196648    7.47156319340901
C         5.04876509857126   -2.05106687314127    5.59394658901813
H         4.78219162366819   -3.02177853225049    5.98509031091254
C         4.82765327533877   -1.75557475440698    4.25886153757167
H         4.38877321449388   -2.49487282505518    3.60571174751022
C         5.16214209856465   -0.50435180180665    3.76589072433430
H         4.97556094879969   -0.26318810475494    2.72989808460124
C         5.72943605762227    0.44322236656898    4.59513576075358
H         5.97088233288030    1.42313217011700    4.21180246589221

