58
CSD_code = LEVYOD | q = 0 | S = 0 | Stoichiometry = C27H23MoN3O3Si | MND = 6
Mo        8.97232227631933    8.94056455952118    9.68618894190431
Si        6.55960010471469   10.73017751794579    8.63998515197419
O         8.67661172639110    5.92648234190203   10.23934167104354
O        11.82964801212960    8.30656637888587    8.77394794906597
O        10.42782589408118    9.04266263444869   12.38872427109993
N         9.11452221569477   11.14079587488402    9.61984001932395
N         6.86381699906697    8.94317895432931   10.65439024616712
N         8.20478933665671    8.82875051832455    7.54977830588007
C         7.91781066089986   11.73455181368186    9.50441483498900
C         7.68740061701642   13.04795173375017    9.89626267086814
H         6.69660143798285   13.46459341040675    9.79795832661595
C         8.73182988237397   13.79810309713999   10.40402324143420
H         8.58321617427858   14.81274769863779   10.74149352303765
C         9.98502631094532   13.21156269698763   10.42757785004753
H        10.84323803207297   13.77240566977451   10.76493675721605
C        10.15016208012809   11.89119741461232   10.02154541449942
C        11.52660467248071   11.31584733617257    9.99377181718753
H        11.72672378688117   10.89137052836465    9.01136067804783
H        11.63702851812396   10.52103908126734   10.72791249488785
H        12.26415461309904   12.08683139290833   10.20328779962999
C         5.94382346941136    9.34376606542959    9.77087482482296
C         4.66629142484405    8.79997572058755    9.72041248188085
H         3.98507010757702    9.10627875503987    8.94143468067815
C         4.29920091110246    7.85949151824838   10.66565573395832
H         3.32384777102053    7.39614231582311   10.64549781696342
C         5.20904658435500    7.56179970327995   11.66555099703490
H         4.94337190748603    6.88544746668054   12.46348520256961
C         6.48428513041203    8.11835355928751   11.63609777960333
C         7.43329836285986    7.82712087236069   12.75103378032659
H         7.91464898806469    8.74723369405015   13.07585039132616
H         8.21189242282505    7.13596960662294   12.43436992777199
H         6.90298062682537    7.38487347478148   13.59122732655109
C         7.32797890190477    9.78228221101777    7.19065577659665
C         6.92665107526457    9.99082147132756    5.87826533251474
H         6.20827631628295   10.76512099115568    5.66034156471160
C         7.44156924278030    9.19225228335727    4.87358390416613
H         7.15713661832744    9.33157105233391    3.84136316863879
C         8.31551188655619    8.19059395903353    5.24821019538994
H         8.72902419829474    7.52115671593847    4.50933085839052
C         8.67300092848876    8.02510985298584    6.58561218269094
C         9.59605568107208    6.89864318937230    6.90841679349170
H         9.41905891534902    6.52673300376690    7.91253538534324
H        10.63096882535940    7.23192886923110    6.85171752597510
H         9.46407357821882    6.09170637815912    6.19056217508714
C         5.23478023863646   11.96796182678768    8.10496221000858
C         5.53241344702500   12.90195035667157    7.11570320558339
H         6.51257745928850   12.89630907869591    6.65988370549998
C         4.60379034233086   13.84614637997637    6.71882553829615
H         4.85493813699663   14.55908075496732    5.94673796917921
C         3.35418463686408   13.88083537926265    7.31529733442031
H         2.62540890092887   14.61570547435261    7.00652947440773
C         3.04992562897313   12.97649983461628    8.31807790683383
H         2.08326175328125   13.00826907704725    8.79965209477343
C         3.98442287506883   12.03350176768099    8.70889004076587
H         3.74141964839954   11.34551042202406    9.50490089299774
C         8.77269571002932    7.04259350398137    9.96384214708731
C        10.74731119572531    8.61453810618874    9.02303495550252
C         9.80617280040945    9.04594465393991   11.41883475325584

