93
CSD_code = LEVZOC | q = 0 | S = 0 | Stoichiometry = C40H47CuN2O2Se | MND = 5
Se        4.46678091765848   10.67952441406780    2.91985894277614
Cu        6.47866772493365   10.78525392796021    1.36022998699227
O         7.22119396668989    9.23458095808080    2.15055411719583
O         7.31094532829947   11.98942664436567    2.50550322473085
N         6.05896585468507   12.30851449383247    0.06327396297650
C         6.20791003098114   13.60424365027790    0.20897501825578
H         6.69012125583062   13.92899288449446    1.11924724823931
C         5.77451826349576   14.51524581956254   -0.75902525324244
H         5.92541914074611   15.57162597159947   -0.59917723192529
C         5.16733335330340   14.04799610536811   -1.90154680984617
H         4.82614744300757   14.72883887105221   -2.66791754219639
C         4.98793103762801   12.66458564229431   -2.06879111695948
C         5.45677258404099   11.82643711860318   -1.03776693226835
C         5.27914546267773   10.41981599786177   -1.11835255676384
C         4.62898970172062    9.85077611350084   -2.25646227253652
C         4.44736914958963    8.45900468624101   -2.23364140361360
H         3.95763889660697    7.98100139853186   -3.06814193393837
C         4.88730652012981    7.72831800692291   -1.15300084260627
H         4.75710685112277    6.65878281084813   -1.11082934251773
C         5.51397460591421    8.37935258313461   -0.09014007640543
H         5.87665964205686    7.83936551970997    0.77143928625862
N         5.69385599054789    9.68241131661617   -0.09079552992102
C         4.37853048673697   12.04620994769709   -3.20982637274519
H         4.04868474899803   12.69785296136583   -4.00664055775463
C         4.21778997272502   10.70808362829102   -3.29534935042905
C         6.64003756747128    8.72606412416852    3.20740088858456
C         5.38925070540290    9.15003445011123    3.69112158861051
C         4.76893888484868    8.57159321517013    4.78967007302427
H         3.81479989831633    8.97641529461959    5.08992641498936
C         5.36131895401409    7.52119407808067    5.45969935432114
C         6.60330810114412    7.09356402152083    4.98939044290120
H         7.08116954542055    6.28004104837211    5.50777345854641
C         7.25638009436811    7.65266162595489    3.91047694287669
C         5.42198695462335   12.00757689050018    3.96763428494216
C         6.73924488511104   12.35265807895441    3.62418616018113
C         7.43681629136395   13.17815318750856    4.55097261557805
C         6.76443952328638   13.64720857651963    5.66088364745558
H         7.29536606796988   14.28963016933221    6.34239953215326
C         5.43863330482252   13.33549869101549    5.96627806225065
C         4.78413704773102   12.47792456576365    5.10486158328510
H         3.77132733024021   12.14850169829550    5.27960998593004
C         4.73234340582515    6.83744352795684    6.66380678781129
C         5.67261591047374    6.97350023305571    7.86942774551876
H         5.86040282560666    8.02410327206483    8.08061028916082
H         6.62688774401184    6.48814778305774    7.68462633941061
H         5.22393236918169    6.51763755435776    8.74987661568824
C         3.38181948622549    7.45216297826450    7.03998617960661
H         3.49185172694996    8.50230193283039    7.29972268988176
H         2.97267274238908    6.93186467232147    7.90398811743502
H         2.66990267342995    7.36064132712539    6.22313507985879
C         4.51142522229511    5.35285638966044    6.34229192241624
H         4.04659333456224    4.84986743088623    7.18796190251561
H         5.45030449684206    4.85201637958564    6.12260717706564
H         3.85926633418834    5.24960606235719    5.47748612232916
C         8.62240751057879    7.15295316203717    3.45074960932240
C         9.62703907363028    8.30939260155208    3.53147996930145
H         9.70521576033852    8.66952656662200    4.55545819161710
H         9.30657111161310    9.13077100243350    2.89817879764051
H        10.60984560944759    7.97911521430583    3.20107482686504
C         8.52582922086583    6.65068013374711    2.00332809878073
H         9.48335120951269    6.24454547847374    1.68327354553900
H         8.26135633681920    7.46913825253201    1.34057713145345
H         7.77293250532151    5.86741117902284    1.92323190122725
C         9.15470330600460    6.00199733875601    4.31131411053015
H         9.27359244373381    6.30674029994894    5.34861119828365
H        10.13258045027926    5.70382778425487    3.93779643825265
H         8.49995644062729    5.13430778801972    4.26260404466896
C         8.90309114261047   13.51141418090968    4.29656142097157
C         9.51550648882274   14.37942300677443    5.40102894948799
H        10.56561057118239   14.55322711560633    5.17350066663001
H         9.46193413186726   13.88382008002458    6.36769949340453
H         9.02284137469914   15.34759400502725    5.46390550060626
C         9.04568662011405   14.26901805339851    2.96947362763249
H         8.75192435384392   13.62904481598012    2.14310027955741
H        10.08068338638462   14.57046130293719    2.81979364371166
H         8.42175395281201   15.16217428114264    2.97340818390644
C         9.69525275706786   12.19894639186692    4.22926282932399
H         9.30914003967582   11.56471033518906    3.43739454471526
H         9.61530458881226   11.66289710183593    5.17314412638164
H        10.74574263764103   12.40126227184186    4.03005986181679
C         4.79446220494278   13.91598493378051    7.21560129077369
C         4.80181643753678   15.44799408812292    7.11849396077699
H         4.32962147705708   15.88287241985217    7.99718767568474
H         4.25305224848393   15.77022241621699    6.23592569971454
H         5.81479813233626   15.83495517314302    7.04976599481347
C         3.34507568638814   13.45468816749250    7.38837224715024
H         3.29072543661160   12.37399063948450    7.49523773168019
H         2.73500772295566   13.75917243115482    6.54126305588938
H         2.92435044040952   13.90360367366990    8.28615500727268
C         5.58983302698127   13.46993038025101    8.45031811628210
H         5.62079646436548   12.38373660618729    8.50330157995469
H         5.12062667449872   13.84800235214569    9.35649386606964
H         6.61154866501019   13.83793624233771    8.41798411630492

