28
CSD_code = LEWKIJ | q = 0 | S = 0 | Stoichiometry = C10H14AuCl2N | MND = 4
C         4.32591790237214    4.61080000857559    5.31007319912626
C         3.40494245248697    4.63132210128163    4.26459565522461
C         2.81190740046312    3.44652029046535    3.85485796681816
H         2.09789173936186    3.46143568820806    3.04416996254518
C         3.13098149396580    2.25511406472124    4.48081030038827
H         2.66250070279638    1.33897152105357    4.15260032402919
C         4.04597695676829    2.22591012254942    5.52310820589286
C         4.64315443253737    3.42031051243327    5.92533998024207
H         5.35225597063641    3.40857885852159    6.73770690732117
C         3.07132420299327    5.95830952510365    3.65515627310056
H         2.75438629242134    5.86274911092770    2.60997462897926
H         2.24634231236446    6.40599538507610    4.21971482940061
C         5.20955152144343    6.54162514254238    2.70840798568266
H         6.09677879071894    7.15596907802104    2.84662405402270
H         4.78657270717635    6.74276394044595    1.71956497596267
H         5.48859199034208    5.49094829400722    2.76804026579740
C         3.81803774343349    8.25447301046065    3.61036686408928
H         4.68328929495909    8.90121640362167    3.74622696883097
H         3.08943799749408    8.50553594473680    4.37872076276053
H         3.37848041459457    8.42146033305447    2.62371258414623
C         4.38502814552720    0.94996494198623    6.22697432189488
H         5.43753889873979    0.92813552003144    6.49790207469635
H         4.15688480979469    0.08876148936463    5.60415824726875
H         3.80362412559716    0.87081898074133    7.14562923259941
N         4.23521646607730    6.85970974849165    3.75667367476790
Cl        6.18087731130103    8.49985129380211    5.70341383996580
Cl        6.01943177778822    5.75359189564355    7.58256316956036
Au        5.16337614584340    6.40375679413430    5.63341274488955

