56
CSD_code = LEWPUB | q = 1 | S = 0 | Stoichiometry = C24H27ClN3Ru(1+) | MND = 9
C       -16.48438866302192    9.85500179971930    6.61418043762821
H       -17.39044726337195    9.45186551202542    6.16228667067096
H       -16.04836337215831    9.09074953675144    7.27580461940981
C       -15.89318179577432   11.78604587509854    8.00162967230638
C       -18.09263135245863   11.49917761367902    7.66527360650828
C       -19.36371596426305   11.08139708642369    7.30165591632872
H       -19.52557562694566   10.21936739024356    6.67473993648691
C       -20.42858349493721   11.82220771866802    7.77858720903302
H       -21.43251221151637   11.52960947157242    7.51545311883742
C       -20.23918426855729   12.93909052992073    8.59154116648343
H       -21.10088573817354   13.48624909605331    8.93894150219837
C       -18.97630874831301   13.35996357047389    8.96148065958181
H       -18.83453271236143   14.22334982017376    9.59029277287470
C       -17.90165941222068   12.62341649416041    8.48541881661153
C       -15.93909110279306   13.81306409532290    9.43611138323366
H       -14.86113140407357   13.80286640835257    9.27593408966692
H       -16.16319868609249   13.67916141805536   10.49593235496254
H       -16.33053125754934   14.77580071144942    9.10789269919222
C       -15.47842920255822   10.21131079391371    5.54576425171750
C       -15.69644955921541    9.87753401491436    4.21816216318567
H       -16.60546857196830    9.37001984117412    3.93729543571395
C       -14.74376129083469   10.19995839712385    3.26441472222887
H       -14.89738171553030    9.95200808813844    2.22667410631472
C       -13.59508919878480   10.85281816611393    3.68234130254310
H       -12.82362510999428   11.13070964855967    2.98318620481599
C       -13.45027048975673   11.16182904585637    5.02161795153394
H       -12.57696420714141   11.70224490270895    5.36734778983767
C       -11.85930846307624   10.34548465872591    7.89549410301277
H       -11.18588957484494    9.99705751866654    7.11996128785031
C       -11.66549447616132   11.59890195200052    8.47484092462179
C       -10.58841040439355   12.53012201216353    8.02343845521513
H       -11.03618568004932   13.42353328831034    7.58273489063411
H        -9.94198587035876   12.06245544777928    7.28457667942403
H        -9.98440173030315   12.84940481833201    8.87155871477556
C       -12.52903470760027   11.98254275128053    9.54581049647662
H       -12.35053611661803   12.93126408845572   10.04248721954040
C       -13.49396852263969   11.10310436486098   10.04913358934904
H       -14.04449085459575   11.37169486628032   10.94377375987578
C       -13.68459380514180    9.81345178554960    9.46832829885246
C       -14.57401429865146    8.77609997416452   10.11207843952933
H       -14.80617377873293    8.01094117858374    9.36116270756608
C       -13.78244211902198    8.10711858116620   11.24358584524064
H       -14.38278946307292    7.32705173922230   11.70333382638519
H       -13.51883693178746    8.83498260981917   12.00749251117319
H       -12.86730806538567    7.65918814511101   10.86313000626133
C       -15.88886579668913    9.34526690549463   10.64565867882735
H       -15.72250228147366    9.96257089610837   11.52438730389798
H       -16.54817880188302    8.53129401239530   10.93456956286110
H       -16.39208330355416    9.94413033492830    9.88874343489309
C       -12.88201312467631    9.47577336786436    8.36284735491265
H       -12.95539519372569    8.47831304336856    7.93931532188995
N       -14.36826303604755   10.85179091504691    5.94313946769357
N       -16.82712197947808   11.01645371175981    7.39721583119157
N       -16.53830909596838   12.75881354377849    8.66221889122856
Cl      -13.78014678574450   13.57885209165803    6.89179334106871
Ru      -13.92959331795619   11.42642435047631    7.82992849584521

