55
CSD_code = LEWQIP | q = 1 | S = 0 | Stoichiometry = C26H20CoN4O2S2(1+) | MND = 6
C         7.20148482054851    4.43334216607154    1.70064570064759
H         7.70353018359367    4.65581604611524    2.63147861161756
C         7.45830276815030    5.18823280101918    0.56950051362665
H         8.16491221504581    6.00040490255746    0.62398825660565
C         6.80188518834543    4.88394144565965   -0.61522485798726
H         6.98653413951442    5.45548594527487   -1.51121985961332
C         5.90580817036566    3.83036092656590   -0.61754715202230
H         5.35304419255099    3.52970805462596   -1.49449296296685
C         5.70275444380142    3.11862370321471    0.55683445024958
C         4.73809424619801    1.96809493790481    0.59385798429777
C         3.92907898733095    0.34122951497486    2.17749502280688
C         3.04972002642874   -0.33462191788975    1.32205080406640
H         2.96154951256883   -0.01163613987526    0.29847357766172
C         2.30746955242729   -1.40120859222649    1.78863088447132
H         1.63699454535691   -1.90588835978674    1.11077630671825
C         2.40327848560196   -1.82854325313223    3.10587292050876
H         1.81194428694394   -2.65815322467161    3.45764633419355
C         3.26226475413994   -1.17570786384481    3.97010675408277
H         3.35042432011868   -1.47870276453656    5.00215338705354
C         4.01839921454363   -0.11754619685099    3.49793124790993
C         6.51566276697524   -0.47028094391170    4.67197683939289
H         7.24575311594684   -0.03439922571654    5.35561859662515
H         6.12225483751455   -1.39219139534858    5.10148110295980
C         7.10425258456212   -0.71079025003704    3.30559117681876
H         6.38975693251002   -1.19287516600231    2.63665044126580
H         8.00976126354022   -1.31549300448624    3.36530913449288
C         8.73285912284833    1.51765530122335    3.65576525729496
C        10.01659778294446    1.00284169389604    3.69291539346004
H        10.29676110794053    0.21253461230818    3.01348284997567
C        10.92118146833119    1.51339800224863    4.60507050064715
H        11.92301514191079    1.11846916835185    4.64987470449567
C        10.52772552239753    2.53918706066228    5.45350602777298
H        11.23049998748635    2.94272101633153    6.16555228009207
C         9.25172713499652    3.06424664861531    5.40469601958867
H         8.96224040418902    3.86309374945560    6.06640830997887
C         8.31613710898883    2.56164179295702    4.49153391993243
C         6.47631264228761    4.00116042980091    5.08472057327843
C         5.04893437684560    4.22828167097060    4.67648509998526
C         4.28133412171942    5.19775591263209    5.30727994509415
H         4.74114381564789    5.77541323097226    6.09456080448370
C         2.97038914231846    5.37954948818319    4.90557931799791
H         2.34490754544164    6.12144069722132    5.37671035443478
C         2.47883116249356    4.58331859138960    3.88018636314081
H         1.46468193834507    4.68657219445222    3.52982226304219
C         3.30629784607589    3.63870022649967    3.29855969640460
H         2.94034650152425    3.01003348012367    2.49926799250961
Co        5.85966951259878    2.23564488781535    3.08061565834618
N         6.34200456014031    3.41625156623312    1.69235129329388
N         4.71948694132287    1.42157487336502    1.82564395969355
N         7.01360044073305    3.00758804819179    4.34949812686573
N         4.56636980335095    3.46363618513688    3.69206421848691
O         4.09717126085387    1.65119485839120   -0.39074868746991
O         6.99710124010129    4.67250672778480    5.95575614396482
S         5.13227040687267    0.73330176825850    4.60772390710021
S         7.55548640467260    0.86418397086009    2.47973249062610

