73
CSD_code = LEWREN | q = 0 | S = 0 | Stoichiometry = C24H43NNiO2P2 | MND = 4
Ni        7.96260028561459    6.55299223720059    3.35437715494800
P        10.12128100257345    6.95298734786994    2.70146379276524
P         5.73701037901782    6.88638518591908    2.86960855343626
N         7.87849563418405    5.39360584003915    1.61365138576352
C        10.08895594398528    6.13625520313292    1.01808606302258
H         9.86260066315933    6.92971177372252    0.29887945715358
H        11.04777361637155    5.69559668241246    0.74354646926559
C         8.97207152723678    5.14125776726973    0.90114263251394
C         9.01388602136192    4.07882241800327    0.00758781990575
H         9.91178856041467    3.86876175042454   -0.55358101841928
C         7.87512922059937    3.30719048196361   -0.16288120784718
H         7.88114304857012    2.46994578934369   -0.84535314293800
C         6.72047523465418    3.64153701594105    0.52419610344576
H         5.80767062712964    3.08452640726675    0.37658853523381
C         6.75905893312095    4.70791561846907    1.41651776476417
C         5.54938293423771    5.14869211956584    2.18388291807479
H         5.45790645919800    4.50273831421076    3.06312275251265
H         4.64768207559947    5.02983149850204    1.57936908617220
C        11.43568696901702    5.87983457420125    3.55157025989542
C        10.88667601511112    4.45175446173120    3.44105217396765
H        10.99591729111644    4.04967891610327    2.43614297516340
H         9.82824925655983    4.43448160450181    3.70887072001480
H        11.41567782648125    3.79191709409923    4.12749921826892
C        12.84573086739148    5.94126908949557    2.97156684231366
H        13.44344024017924    5.13785104576971    3.40228330108482
H        13.33067645014174    6.88171659948998    3.22051658857247
H        12.85332979831815    5.81687398962610    1.89112568724290
C        11.48697539887274    6.24522411591374    5.03700600579269
H        12.14566199720265    5.55522024396180    5.56427496795032
H        10.49865506033648    6.17202342453476    5.48358829517892
H        11.85835047217531    7.25294769952370    5.19605577308267
C        10.81080950174071    8.66073440672435    2.25814625577691
C        11.23458280168529    9.34456031387906    3.55789488457177
H        12.18370056619197    8.95511534598415    3.91770497285243
H        10.47410756678022    9.19565041972350    4.32425465659534
H        11.35355576268259   10.41591631844703    3.39917951384207
C         9.59029066960828    9.40699215546569    1.70859465891089
H         9.79727743624252   10.47213942399708    1.62000131426317
H         8.74627286170251    9.27137819829829    2.38857332643018
H         9.30255525625545    9.03771968111411    0.72574953682088
C        11.94393498663037    8.72009727020346    1.23781262896772
H        12.16061285230320    9.76471258810542    1.01357318723931
H        11.67680765989028    8.23088670956590    0.30440252908939
H        12.85422961263331    8.26780000317112    1.61655943771039
C         5.24292697337486    7.96898282758544    1.38414006127258
C         3.82436629564712    7.81742871684722    0.84640687432804
H         3.08252160282888    8.16700518187755    1.55873151393764
H         3.60455742835335    6.78590548226235    0.57875239864426
H         3.72216507739149    8.42009950554769   -0.05652093669870
C         5.50061548662714    9.42382992160728    1.78740361268475
H         5.56393496220805   10.05581080321404    0.90244113848160
H         6.44417783624507    9.49565278661501    2.32725161493961
H         4.71204855207331    9.81545539489673    2.42142480091239
C         6.23213159498513    7.61814656823886    0.26972608092188
H         6.15575021896965    8.34130773425470   -0.54182326748123
H         6.03917174420628    6.62867185771484   -0.14033587421384
H         7.24801415767883    7.64260264080954    0.66226576258144
C         4.29993348923580    6.84638250222252    4.11717769674820
C         3.06275898303649    6.05615442616811    3.68614713738842
H         2.27738589398562    6.20590721140562    4.42715788279950
H         3.26733138077984    4.98970950671467    3.63885319206749
H         2.67715554156744    6.37950120000547    2.72550894847952
C         4.87359538985296    6.19194151784404    5.37974240292156
H         5.60571911675686    6.84743334267606    5.84623902747366
H         5.35710136548173    5.24023563846381    5.16327253328346
H         4.07825050076016    6.00863819864237    6.10159615230224
C         3.90134408012045    8.27544829292412    4.48605794032076
H         3.30435165540755    8.74058590191870    3.70613271209400
H         4.78919581960467    8.87964708682424    4.66633739449234
H         3.30676131562024    8.26772102548731    5.39936714381974
C         8.04899154001101    6.71532718958106    5.17799799638592
O         7.98306134192489    5.52778154852012    5.16089477062654
O         8.12730331096898    7.75933684426182    5.71624845709934

