40
CSD_code = LEWSIP | q = 1 | S = 0 | Stoichiometry = C10H22ClORuS5(1+) | MND = 6
Ru        0.94560519474296    7.33478269265684   19.96302133123724
S        -1.39477372692979    7.33419248600716   19.39083013710584
C        -1.80610031455628    8.77866613959251   20.43771019394108
H        -2.88213952111445    8.94730165161795   20.38386547906545
H        -1.49898109252779    8.52938439004959   21.45678392687448
C        -1.04879316956022    9.98641773818448   19.92417179638520
H        -1.18225966096274   10.82327747683829   20.60988717269670
H        -1.37885591555422   10.27634472261233   18.92734841682579
S         0.77921351131970    9.70249094801678   19.83335293879412
C         1.09964068345436    9.95978740117059   18.04019251543929
H         0.58051570335143   10.87135733430459   17.74567523667451
H         2.17675968592629   10.12953985466291   17.98717071149269
C         0.71641203509030    8.78405397115731   17.16260984643839
H         1.00278534637943    8.97961150092328   16.12888533318577
H        -0.34890803390548    8.55487497126206   17.21709421939360
S         1.67495383481172    7.33418262072143   17.75590141557636
Cl        0.45601226614728    7.33390542287757   22.26779467697707
S         3.07777860132180    7.33419483169313   20.70029571277443
O         3.98963476549333    7.33420309081059   19.57314783991166
C         3.52950693849733    5.95385039268815   21.78389469141189
H         2.87008987774916    5.96770567150962   22.64448145029277
H         4.56623747574053    6.07377054666870   22.07592089832312
H         3.40219934409196    5.03283978593593   21.22318180436667
S         0.77916254932192    4.96665257998302   19.83328894267045
C        -1.04875646290771    4.68213910134576   19.92417829497291
C        -1.80614301065908    5.88979041934920   20.43777710383621
H        -2.88217803734653    5.72110907415463   20.38395865087556
H        -1.49898512045457    6.13909466736020   21.45684302540625
H        -1.18209481444071    3.84524506151295   20.60989513111555
H        -1.37881954298850    4.39219153653586   18.92735834508798
C         1.09962605957193    4.70877561561602   18.04021962024858
H         0.58053511777729    3.79713784047680   17.74582076462539
H         2.17675711522944    4.53906212991406   17.98723432139732
C         0.71635373014315    5.88439072471416   17.16253357035861
H         1.00273391059978    5.68878567636922   16.12882069242212
H        -0.34896422462930    6.11358887187929   17.21702492859396
C         3.52948167956214    8.71458536570472   21.78385947331687
H         2.87007037644743    8.70074820398189   22.64445111624667
H         4.56621321021404    8.59467876269937   22.07588467888200
H         3.40217363555225    9.63558872644112   21.22313359475956

