35
CSD_code = LEWWUF | q = 0 | S = 0 | Stoichiometry = C10H17N2O2ReS3 | MND = 5
Re        0.93379110321352    2.58045609875734    0.19333326751550
S         0.96511396507117    4.86739227710015   -0.06122346269156
S        -0.75040107633577    1.36491940341649   -0.78838210530530
S         2.27671140932020    1.61829326646549    1.79399804662769
O         4.30348773894273    0.39311614385655   -4.95854469875025
O         2.78009422195830   -0.33983966333845   -3.48308283482618
N        -0.45462245581887    2.93481113180446    1.79126748542155
N         2.96114383432686    2.09289090693950   -2.12553728490456
C        -0.15562484502754    5.36312570954791    1.31029606571946
C        -0.22472362147413    4.26959445874402    2.36363226889420
C        -2.08695567152722    1.60664698711749    0.45306916879018
C        -1.83048577481129    2.85701028219520    1.27795627473507
C         1.18121085308825    1.76224521205961    3.26462031793064
C        -0.26890422467069    1.91801335705694    2.83706598018225
C         2.18887071215179    2.24928487520710   -1.26096008177192
C         3.82597386900001    1.84037615407786   -3.18277887751305
C         3.54341831620966    0.49751011825529   -3.86116984201574
C         4.16250496157315   -0.81368499710857   -5.70010015648341
H        -1.12766901217420    5.60114615448544    0.87666451586938
H         0.25847456632834    6.27345857930305    1.74309240519410
H         0.73937979475838    4.25265109989077    2.87876259249346
H        -1.00741630150578    4.50804926943131    3.10224869228162
H        -2.14842732083390    0.70097587142448    1.05757707228405
H        -3.01871436935229    1.71083097338619   -0.10242091858636
H        -1.99405232999881    3.71754883955312    0.62379942358676
H        -2.55105382980556    2.91383569046404    2.11026449794262
H         1.54088234204735    2.59644669675986    3.86840941334072
H         1.30394979541544    0.84523215850324    3.84054894960361
H        -0.59374918012457    0.95627469701932    2.43102829878759
H        -0.89587722806254    2.15308435674772    3.71289420066109
H         4.86007597958041    1.82266401191083   -2.81817788972746
H         3.73862882207821    2.63247088649885   -3.93478687538191
H         4.89990415541930   -0.76755674224031   -6.49669901276628
H         4.34219356007832   -1.67629988441057   -5.05626041475536
H         3.15486724096493   -0.88657438088680   -6.11320448238834

