68
CSD_code = LEWXIV | q = 0 | S = 0 | Stoichiometry = C28H32Cl3NO2PRe | MND = 6
Re        8.19598767432787    0.90974054526608   14.09435515481958
Cl        7.25110888500224    0.33525423588854   16.12872802979090
Cl        6.18375476237423    1.83018546766242   13.55745562228198
Cl        8.59983665879403    0.93872932925910   11.80804161624838
P         9.78446158838686   -0.88243562300319   14.66400727357502
O         9.26152461406555    2.10794772707482   14.50758587204739
O         7.17929477284425   -1.06892776696410   13.41690676012883
N         5.98710287665968   -2.12170541302417   11.81659333075687
C         6.09223039302953   -1.42172478335021   12.93902074775914
C         4.73005554004276   -1.19729250942406   13.53608868549278
C         3.78247569752864   -1.55637532263981   12.39170464543201
C         4.62016848720164   -2.47942483934160   11.49750959917699
C         7.13024815291880   -2.46521471822143   10.99344426504448
C         7.16970731276025   -1.62956941898574    9.71258970728502
C         8.43288615506033   -1.96256632746505    8.92493337609335
C         8.50039670759162   -3.45393929331675    8.60936113063631
C         8.43949657771125   -4.27680567412364    9.89287530348230
C         7.16554457720473   -3.95731619676289   10.67048185025881
C        10.33957709222705   -0.72047526279722   16.38516313533955
C        10.50010671113240    0.55180303585624   16.92577975623444
C        10.95873572399506    0.69946244175938   18.22146668842704
C        11.25863170790510   -0.41931465804828   18.98281104931977
C        11.10705386379185   -1.68643627401842   18.44433054631809
C        10.65151580172076   -1.84225421941896   17.14726821002648
C        11.32144849295960   -0.89087104711477   13.69701399027365
C        12.57055375827429   -0.83776164995981   14.30697283397429
C        13.71597175203877   -0.84733436316302   13.53033317787371
C        13.62438503529227   -0.90655682836971   12.14959113188967
C        12.38104244014309   -0.95094328071784   11.53891618887047
C        11.23131749743709   -0.94181642512858   12.30645381765142
C         9.14577964417907   -2.57716173863260   14.56008597121215
C         9.64146618511004   -3.50582555961131   13.65303718970254
C         9.09602566023131   -4.77786270467716   13.60213699079517
C         8.05215087475170   -5.12357023780836   14.44351209258194
C         7.55583611270604   -4.19709377315321   15.34854082290965
C         8.09963057565858   -2.92878590121438   15.41263518556445
H         4.63190397650205   -0.16768429220970   13.88020610632250
H         4.62097978524194   -1.85554522927271   14.40127984447388
H         3.51231132683657   -0.65340788746534   11.84479412540916
H         2.87004387698071   -2.03835482074217   12.73519471119286
H         4.42152747412041   -2.32577994280875   10.43603131366822
H         4.44951689892377   -3.53606286811100   11.73700624878062
H         8.00805058377642   -2.20799038185620   11.59763594208082
H         7.17351440796556   -0.57179223463111    9.97827034448165
H         6.28958733621667   -1.84027302153177    9.10080064727270
H         9.30377934373121   -1.66894529672090    9.51303495339975
H         8.44703375121959   -1.38438595954661    8.00013035847489
H         7.66230558194857   -3.72823489474675    7.96418439564507
H         9.42247192206453   -3.67851562784342    8.07019954395708
H         9.30743550757053   -4.04441687357794   10.51337648775072
H         8.46876200826663   -5.34249477025020    9.65639411230112
H         7.13295084455824   -4.53576957431401   11.59687100710920
H         6.29685517176417   -4.22555389092598   10.06509559875517
H        10.24901469872585    1.41949048241209   16.32685451580040
H        11.07485609077187    1.68717361668735   18.64091761675769
H        11.60734787233882   -0.30396785099968   19.99824539783861
H        11.34201188056345   -2.55870146071911   19.03647281670534
H        10.53663745402174   -2.83221709895712   16.72830478677662
H        12.64723395607922   -0.78527990271699   15.38323903264154
H        14.68413467669920   -0.80300700009179   14.00693041835024
H        14.52199790359462   -0.90833222417819   11.54923027455673
H        12.30636103625929   -0.98190883923445   10.46216282577888
H        10.25844586644908   -0.93054125745687   11.83574102862963
H        10.45634828956824   -3.23996287851763   12.99493775663925
H         9.48808686494800   -5.50029469567941   12.90107614831166
H         7.62587109259064   -6.11510581583197   14.39554280033413
H         6.74290112488396   -4.46637688828130   16.00688330916083
H         7.71271103192509   -2.19482159203622   16.10652378137332

