32
CSD_code = LEWYAN | q = 0 | S = 0 | Stoichiometry = C14H9CrNO7 | MND = 6
Cr        1.19763044040718    2.21468166965056    1.46098719127367
O         1.64663319976871    5.08974074619539    1.66719231499696
O         1.60726212862335    6.87749702598533   -2.54810204869556
O        -0.40551321288234    2.99534452670702    3.88747933100628
O         3.62239988089064    2.31308903383979    3.24549245720380
O         2.78906339755161    0.73004441478179   -0.61753011991421
O         0.87288481254542   -0.55376249270982    2.57460120697512
O        -1.33244900503980    1.52557358680820   -0.02045928712180
N         1.42943175300306    4.73035947954984   -0.46147300936267
C         1.43098957775973    4.13831472738903    0.74673972799729
C         1.23308751533840    4.07453945260036   -1.72394977813709
C         1.65158871069922    6.09063664804397   -0.32000145882607
C         1.78604202822406    6.29482784162290    1.05446559546564
C         2.01779916025666    7.54472016742791    1.60254367231516
C         2.11050875850437    8.59023335307337    0.70389463713870
C         1.98065545173079    8.40579433486931   -0.67032525882601
C         1.74744571015911    7.15257620575108   -1.22492917021884
C         1.71548801593169    7.93963492701931   -3.46822873390070
C         0.19219259001983    2.80432023101223    2.92626748614117
C         2.72863841311033    2.36279140858909    2.52652918184569
C         2.20445086699131    1.39647331650644    0.11802389986260
C         0.99757105838072    0.51143632187976    2.15340277051602
C        -0.36899131365297    1.88198005222385    0.49982453800411
H         0.98159462542034    3.02986014739652   -1.54476102441695
H         0.42610828431136    4.56095190870413   -2.27178186078223
H         2.14266674178799    4.13481212965026   -2.32340967536928
H         2.11800310006684    7.68325666832592    2.66474551944198
H         2.28988805344200    9.58802104244080    1.07211055575589
H         2.06493812838951    9.26832357845000   -1.31079027874526
H         1.58017136198242    7.48929145813744   -4.44991434247089
H         0.93856383658021    8.69190799070185   -3.30373831352115
H         2.70045592969812    8.41272809737799   -3.41850572563751

