95
CSD_code = LEWZUL | q = 0 | S = 0 | Stoichiometry = C37H54IrNP2 | MND = 6
Ir        2.51574109635119    6.71835980529230    3.90205008303078
H         3.66670520879285    6.40373902743764    2.90305052308888
P         1.54386225962369    4.66495245275819    3.49225301672156
P         3.91138120331011    8.37465415581440    4.73336728314641
N         3.45618098124692    5.57772637372865    5.44830237405953
C         1.60157236915948    4.03048583342254    5.23947304104028
H         0.76278642884632    4.52844510290648    5.73913263560134
H         1.47098176524347    2.94922726074019    5.32121424349520
C         2.86421490648387    4.47310536220860    5.91093134708707
C         3.39325451594322    3.77023822774715    6.98523037105497
H         2.89030714494210    2.88851379052872    7.35251130208258
C         4.56581926056167    4.21443717976590    7.57388550734740
H         4.99580528544490    3.68520553209546    8.41053532284096
C         5.18028957454541    5.34678570333397    7.06432856389738
H         6.10337086839750    5.71165662170327    7.48864626326787
C         4.59386487866301    6.01262732319747    5.99693272418283
C         5.22363353256273    7.22305828140704    5.38388986744754
H         5.77549816069407    6.90120251853971    4.49417991336042
H         5.91995989231318    7.70227432294331    6.07479038202584
C         2.60558794112233    3.35407349882483    2.58564643067593
C         3.94118772642739    3.24803465847212    3.32774360068997
H         4.38836939169749    4.23152472159783    3.44682616595103
H         4.63152329776511    2.63640104080114    2.74687765630566
H         3.83131951880006    2.78517817000861    4.30656460412033
C         2.91337870202534    3.85916792183629    1.17618321107618
H         2.02321217527196    3.93052223198417    0.56042816683299
H         3.61278667089881    3.18309642284407    0.68474681171023
H         3.37292452556740    4.84225326695434    1.23857806861288
C         1.99907457808643    1.95349575086341    2.51562284319351
H         1.72779135725532    1.58127143900196    3.50166287882958
H         2.74197402875416    1.27064987829128    2.10197384177296
H         1.12919918961659    1.91765855682054    1.86677477038549
C        -0.28507930115035    4.40108433537853    3.02754242941307
C        -1.05676402699313    5.61649931958851    3.54378906266761
H        -1.03106178018958    5.67947233711358    4.62790656090388
H        -2.09858251955408    5.54531117036897    3.23337486472282
H        -0.63841539237027    6.53644422032300    3.14117827940477
C        -0.92816676632926    3.14960147757054    3.62653104097885
H        -0.43608191524866    2.23215294132101    3.32452169421045
H        -1.96223183230886    3.09668934560905    3.28612671997525
H        -0.94487660962988    3.19821647508217    4.71267637311018
C        -0.41682641477340    4.40364715850108    1.50410894357950
H         0.11492283653347    5.25956954709558    1.09095659097957
H        -1.46725088031375    4.49578056800679    1.22926299149396
H        -0.04021256680624    3.48834558839111    1.05566844977194
C         4.91691180066938    9.49134073887333    3.55870599367616
C         5.07964936488507    8.74070725663249    2.23560796228068
H         5.62032945279838    7.80647367993967    2.36653010086732
H         5.63949425811917    9.35822707108885    1.53398528500599
H         4.10854510246773    8.51674140898896    1.80315515152641
C         4.08783781749327   10.74244210424737    3.26562665792380
H         3.07132174504468   10.45481378312910    2.99788174698236
H         4.51975028474984   11.28141902930120    2.42291656414947
H         4.05934852478953   11.42259462837386    4.11264548678787
C         6.31759930012237    9.86751946692107    4.04656821512708
H         6.30778093150879   10.44921817148683    4.96012021475338
H         6.79858089850734   10.47343736752891    3.27858843205818
H         6.93408431650995    8.98466538787029    4.19939955718734
C         3.49498091163251    9.35967427712798    6.31912313763125
C         2.18930403340099   10.11753317829877    6.07969454488800
H         2.26849769429480   10.81727762630836    5.25341341079537
H         1.91506558215580   10.67452553993797    6.97538336597291
H         1.39441981390037    9.40759720840779    5.86454324561830
C         4.56963409308883   10.32917448376150    6.80858821437073
H         5.53252261686160    9.83799737421446    6.93454974021537
H         4.26929600293928   10.71273867944386    7.78420378391552
H         4.68209031618904   11.18232948549986    6.14609071436634
C         3.24608088448747    8.34073677066383    7.43552827171493
H         2.56756624523836    7.55969017711921    7.09940409162707
H         2.77269450602068    8.84048017416479    8.28042898621684
H         4.17051786218166    7.89039685383665    7.79174651883786
C         1.54436738636611    7.84490327714246    2.43745133498478
C         0.75377372970693    8.95464496250193    2.76013189840496
H         0.61987322747292    9.23578885888565    3.79422829872464
C         0.10684522571994    9.71130442232596    1.79697994452103
H        -0.49091233482749   10.56077047742156    2.09976145955305
C         0.21816664814026    9.38719666247510    0.45749432635358
H        -0.28596969204340    9.97512437627572   -0.29638613320424
C         0.98635811919738    8.29395534367120    0.10245441756354
H         1.08714437421598    8.01858098172222   -0.93914755508394
C         1.63344296031388    7.54606276841932    1.07219004026165
H         2.23319792258798    6.70894525056439    0.74418323895313
C         1.05374932078932    7.05852029089891    5.25648474102479
C         0.30714689517413    7.13474914413603    6.21186416346726
C        -0.56942094836333    7.23909291750407    7.31716311879605
C        -0.29518478573073    6.54528025686286    8.49935320998352
H         0.59623670922175    5.93198841423512    8.56017057867675
C        -1.14832031375796    6.64268674338799    9.58009901335714
H        -0.92672337069571    6.10160865331357   10.49040300737323
C        -2.28616377453491    7.43029830126477    9.50326460642504
H        -2.95191048719336    7.50478919391115   10.35127415082967
C        -2.56630415616001    8.12176109715147    8.33454679010146
H        -3.45372251911983    8.73682466487197    8.27275051060464
C        -1.71944524910624    8.02968364971763    7.24876935347844
H        -1.93486051464796    8.56545044995907    6.33440827417948

