44
CSD_code = LEXGUT | q = 1 | S = 0 | Stoichiometry = C20H16N5O2Zn(1+) | MND = 6
Zn        1.39559888189404    2.57073697529073    7.82754191815690
N        -0.64774031293661    2.17421988305317    7.84218934509746
N         1.36310898088444    0.47413335992735    7.56310425770334
N         1.93477004240758    3.15571436494179    5.90364871469419
N         1.35479642651248    4.67926827422882    7.99345107903695
N         2.91006403310458    2.37981571090676    9.75469661863266
O         1.67701676641015    2.34756466265325    9.87185483196468
O         3.32349005778519    2.51583153676573    8.59461184932227
C        -1.61999427826936    3.07237704748666    7.87265527099117
H        -1.31952605762489    4.10008696628367    7.72723848595943
C        -2.94868401045017    2.73732105005886    8.07252152440240
H        -3.70796048917894    3.50180933601466    8.09348249789716
C        -3.26923725935906    1.39932430280926    8.24163517356384
H        -4.29177425696264    1.09198048864865    8.39735268565889
C        -2.25450598689176    0.45840194746536    8.20544743087400
H        -2.49004453206975   -0.58619561167617    8.32027989414322
C        -0.93976737672650    0.87932244610201    8.01007852699787
C         0.19926236993953   -0.05273498370665    7.96342994427037
C         0.10226944198628   -1.39671112251884    8.31831845471066
H        -0.82660728532686   -1.81251290599769    8.67057347983783
C         1.22819191103293   -2.19981700374635    8.23874551680223
H         1.17384014394748   -3.24103407016709    8.51641321817420
C         2.42091516573551   -1.64420187983006    7.80334410778344
H         3.31884310613014   -2.23451447539886    7.72383989798793
C         2.43872268644771   -0.29625343187194    7.48353643610582
H         3.34770213959483    0.19302653017448    7.16052750278924
C         2.09582036530312    2.36209037180208    4.85612142514344
H         1.78999341683012    1.33430605692785    4.98939046324658
C         2.61851415170696    2.80194710385262    3.65159341134922
H         2.73669466549811    2.11990702284483    2.82565334128011
C         2.97971276862522    4.13584864662103    3.54121491105525
H         3.38617519397700    4.52330083266326    2.61982180657467
C         2.80855493088539    4.96793589345755    4.63421685680074
H         3.06849022656413    6.01048527520709    4.55929471916394
C         2.28781804890528    4.44317909675039    5.81629116530792
C         2.08025654591086    5.25510492161508    7.02677795233114
C         2.60606568136393    6.53542269963845    7.18625216083647
H         3.21931968052103    6.98244026866389    6.42206397363681
C         2.35609823115229    7.22693158772920    8.36026998315825
H         2.76242691182618    8.21585159209618    8.50583966737963
C         1.58391485232500    6.62692466824004    9.34226062085403
H         1.36213793783838    7.13177722171743   10.26801116310101
C         1.11129612027977    5.34470961129006    9.11372494516472
H         0.52435996247316    4.82147773098014    9.85638277005990

