15
CSD_code = LEXHOL | q = 0 | S = 0 | Stoichiometry = C3H9AuClP | MND = 2
Au        4.03677086486655    0.90322866096808   10.28361809217119
Cl        1.80074338607470    1.10392107449012   10.05077300853090
P         6.26267445391405    0.70557391818579   10.51067942664545
C         7.09521316923247   -0.30720311444288    9.24363217478953
C         6.83458054136145   -0.05048666218091   12.06822708952061
C         7.19962044147444    2.26868707777192   10.45516926703173
H         6.67152091180382   -1.31084560634662    9.26092924997732
H         8.16897228620831   -0.35641747021503    9.42973966381540
H         6.90980345971103    0.13276241966735    8.26419964824763
H         6.41267125439910   -1.05167438216741   12.14930998765839
H         6.47454487851995    0.54859584031656   12.90402980326892
H         7.92373982467476   -0.10540017449032   12.09507283287258
H         7.00914151181627    2.75911917074874    9.50118642231628
H         8.26876506828834    2.08498460280551   10.56921746531801
H         6.84893794765509    2.91775464488900   11.25681586783586

