52
CSD_code = LEXJOO | q = 0 | S = 0 | Stoichiometry = C26H21AuN3P | MND = 2
Au       -0.93653564475964   12.08547550217675   11.44805624008831
C        -3.85853892911268   13.64053322535937   10.33247537899739
C        -4.21963711619149   12.51963460174966    9.58538073584327
H        -3.89658798859240   11.53877150540705    9.91356669444649
C        -4.98414138286181   12.66461619786143    8.44463905141031
H        -5.26966603517215   11.79487483486498    7.87171056339863
C        -5.37746646863358   13.92989423451429    8.03400892168845
H        -5.97284233696069   14.04499880772209    7.14067273412341
C        -5.00192798653336   15.04626060475448    8.76273602477946
H        -5.30267884447189   16.03111312009329    8.43629266269321
C        -4.23947089037118   14.90860344320727    9.90994997323031
H        -3.94392002724541   15.78113545450679   10.47596907400370
C        -2.58629559947286   14.96297097880240   12.53016488859394
C        -3.60137540870796   15.58945352157948   13.24785340914072
H        -4.55591494727665   15.09608164098311   13.37259527058661
C        -3.37959021416082   16.83832513284733   13.79708015621202
H        -4.16573596169906   17.32686318303887   14.35383497652453
C        -2.15197596805006   17.46310958796394   13.63678724605385
H        -1.98418578626964   18.43756370035773   14.07053971810767
C        -1.13926678166580   16.83909864713569   12.92687115672665
H        -0.18195828991281   17.32413535604610   12.80705347917464
C        -1.35394491261484   15.58869342397897   12.37573680740409
H        -0.56891617801880   15.08421737725219   11.82607023796079
C        -3.92271823798100   12.50558788108287   12.95229247757317
C        -3.32000443869746   11.97815474121334   14.09199927568428
H        -2.24890596691928   12.07360382097354   14.22125584418307
C        -4.08380342653104   11.32718199718249   15.04117085526517
H        -3.61169726210450   10.91845158111830   15.92184659114644
C        -5.45035644775958   11.19096187037338   14.85153179838028
H        -6.04817704857269   10.67451757075392   15.58768245766816
C        -6.05092224939203   11.71012295255795   13.71614969599571
H        -7.11545319294860   11.60040866936782   13.56878618492832
C        -5.29320869152609   12.36912376158193   12.76390816052914
H        -5.76355340904908   12.77085887302188   11.87659050087214
C         0.21914581409837    9.08448267061948   13.19045100307491
C         0.90371043058885    8.33745345955845   14.15010752459756
H         1.97600802620150    8.25074150179508   14.06273955875659
C         0.22290353086460    7.72349937801901   15.18229958571035
H         0.76687704764599    7.15034199517882   15.92002462085015
C        -1.15498125330658    7.84028731805339   15.27784020320190
H        -1.68774108524041    7.36172485607981   16.08757784941009
C        -1.84671369137163    8.56469159961156   14.32187976070380
H        -2.92429965065587    8.64784611443920   14.37763513398557
C        -1.16824730143010    9.17762936732458   13.28555863101726
H        -1.72256204895396    9.72377690658718   12.53356796535207
C         0.64927359727729   10.85348675088978   11.35704714985464
C         0.97037353746940    9.72979146872676   12.12677646740028
N         1.74981508870971   10.95949446279808   10.56902162103305
H         1.92833625952810   11.64803954612193    9.85481096385084
N         2.65445467493482   10.00237893236628   10.82163179450906
N         2.19512687002302    9.27175796523072   11.75741679737375
P        -2.80800577588465   13.32577790532828   11.77705412598182

