55
CSD_code = LEXKEF | q = 0 | S = 0 | Stoichiometry = C27H23AuN3P | MND = 2
Au        3.26380512452313    8.49460582090494    2.33612961131483
C         3.25104523769733    8.19733883241687   -1.15576109366005
C         3.37189008770986    8.93872198347460   -2.32526794939558
H         2.87950954980334    9.89726819359011   -2.41356656839832
C         4.12691112322124    8.44196112331692   -3.37314612456821
H         4.22075685359803    9.01562537451475   -4.28366741643541
C         4.76102276964407    7.21538573648504   -3.25888182140811
H         5.34742435382452    6.83411011907834   -4.08158693989911
C         4.65086945527371    6.47999481185223   -2.08876943883198
H         5.15193497126911    5.52787289864308   -1.99683116742830
C         3.90415063557077    6.97227972257991   -1.03561980038472
H         3.81963827234724    6.41738103254610   -0.10915738771132
C         1.93136097388328   10.48188683237916   -0.04614314539059
C         0.84758997308098   10.89078725357612   -0.81785033763136
H         0.18494030742561   10.15399389618901   -1.25176321274978
C         0.62095494295701   12.23977563904742   -1.02063887761959
H        -0.22115131398892   12.55726780639790   -1.61826034479989
C         1.46788769861385   13.18275374289087   -0.45901855273816
H         1.28133908577772   14.23461731338142   -0.61768028380698
C         2.54864126320544   12.77840969983896    0.30772041170153
H         3.20698986532119   13.50969575697981    0.75244376668751
C         2.77960413198975   11.43124739424035    0.51583630705975
H         3.61054547232286   11.10519547075671    1.12880385275476
C         0.68793655132119    7.93928110180315    0.06363580513267
C        -0.28558627557152    8.25648068140131    1.00987838063911
H        -0.05145155980326    8.97205208206916    1.78876119977156
C        -1.53092167438227    7.66384025550935    0.94876398813595
H        -2.28537895127240    7.91538241790887    1.67936016970067
C        -1.80699889978058    6.73957417060716   -0.04769430739146
H        -2.77928148777451    6.27225227130373   -0.09445010547008
C        -0.83606697258255    6.41009936841623   -0.97860234983292
H        -1.05122232104747    5.68561128287977   -1.75039458336218
C         0.41327605702112    7.00373705397701   -0.92646889334202
H         1.17055610851660    6.74421148788502   -1.65322971503244
C         4.08579680254739    8.53702708099958    4.16811031967629
C         4.31073022342450    9.64556661581597    4.98552858147586
C         4.02270897432961   11.05217989393191    4.79750102536687
C         2.89122478199462   11.46088608339372    4.09205935785168
H         2.20458290796146   10.71402806697303    3.72022507974878
C         2.63794105156745   12.80041072626245    3.87400639462410
H         1.75493980548791   13.09017691661895    3.32025450623146
C         3.49720903074467   13.77839388883033    4.35745815090755
C         4.61873396981012   13.37413507702649    5.07328922918442
H         5.29861856168935   14.12097934745991    5.45985554843413
C         4.88055689629026   12.03681468859912    5.29149146707707
H         5.77295603483323   11.75109629359673    5.83150517716867
C         3.22079995324152   15.23491278090930    4.13499328633163
H         2.46225586684495   15.37390316820926    3.36791674018609
H         4.12716869454548   15.75842671547415    3.83485966403611
H         2.86176721598950   15.69435023675001    5.05661377434871
N         4.60507732718411    7.47320633872764    4.83715360311999
N         5.10827561776351    7.83259781962559    5.95858946603120
N         4.96194758391878    9.14871025108022    6.07667071498547
H         5.26878775232493    9.63846837420051    6.90232965911629
P         2.30149953778299    8.73673100667148    0.29430517848017

