51
CSD_code = LEXKAA | q = 0 | S = 0 | Stoichiometry = C28H20Cl2Zr | MND = 12
Zr        2.18456427212524    5.82287118557318    2.80057032806807
Cl        1.06130524248190    4.19760815729077    4.02568613939322
Cl        2.73173489590881    4.30207267899756    1.12923911364961
C        -0.43336278189200    7.30039277967516    4.29787757667253
H        -0.14150509017024    8.01374419667634    5.05772608301588
C        -1.47945192981563    6.43915787334764    4.52433598633023
H        -1.98851949870804    6.46100489978641    5.47637225204495
C        -1.91242801981218    5.53037442264982    3.54760532460227
H        -2.73950171980159    4.87489550207003    3.77171120143799
C        -1.29860651070604    5.46459391376342    2.31784330181518
H        -1.63826506903272    4.76633555169737    1.56491069998559
C         0.56544753991428    5.91442549233186   -0.39073878780414
H        -0.15289743109769    5.13746089655976   -0.61258248193506
C         1.47219370024062    6.32738407921249   -1.34002769946525
H         1.47424232614577    5.86865256755761   -2.31643379108171
C         2.39456754300508    7.34631809384674   -1.06395139617842
H         3.08077513804415    7.65180064255680   -1.84006393123408
C         2.43165740857616    7.97379244078713    0.15844666294862
H         3.11020928566006    8.79891012062753    0.33101704911641
C         1.32225493455618    8.02221358801914    2.51209245102686
C         0.22446691711280    7.26861464827387    3.04898648578038
C        -0.22346395191340    6.32015063931435    2.04918612951297
C         0.58564107523411    6.51397318215789    0.87360531030850
C         1.53065271365589    7.56857388328167    1.16519433709180
C         5.21067977755232    6.68690968388344    1.63006445369319
H         5.21294413950679    7.64263908508638    1.12234834254198
C         5.90747489719549    5.62521743032935    1.10586731667697
H         6.43115819096402    5.74463455420939    0.16910408227276
C         5.96461503409420    4.38511328475076    1.75851309626813
H         6.52636331998893    3.58150065925401    1.30845454822370
C         5.31660854636510    4.18303285669282    2.95549304068678
H         5.36729521581470    3.22724576342528    3.45914510968699
C         3.60460352881725    4.44085309342678    5.78610044313229
H         4.00825111900211    3.43905738857040    5.73721114382703
C         2.85070413021395    4.84470839672860    6.86430250192519
H         2.65281149560260    4.15504776955218    7.66992498067979
C         2.33666772579895    6.14669520782792    6.94018042776031
H         1.75887549855673    6.42853806037655    7.80807716353637
C         2.56571707030837    7.07154834761622    5.94937102931259
H         2.20962259298091    8.08802233526841    6.05500710802205
C         3.73220788094651    7.41697707197850    3.64865499802533
C         4.53027813732824    6.52400079807123    2.85641730932756
C         4.58680502906454    5.23659236210838    3.51876264537800
C         3.84207351451899    5.34678051096343    4.74640199394920
C         3.32324739903229    6.69425854800707    4.82091492596411
C         3.51389891914563    8.88816413304165    3.39986889909372
H         3.87810608821303    9.47572419421533    4.24936707256245
H         4.09512535062760    9.18771945526920    2.52466377418615
C         2.01306758947673    9.19322035631213    3.16413133172236
H         1.52357111705073    9.40508570337944    4.11760401307850
H         1.91451570212222   10.08869151360111    2.54123990336398

