54
CSD_code = LEXKAB | q = 0 | S = 0 | Stoichiometry = C24H25AuN3P | MND = 2
Au        3.23736832594376    8.47187261971356    1.71918695426291
C         1.54848625320815   10.32547145337560   -0.56313477932698
C         2.53980334054034   11.29861047591357   -0.45027313518154
H         3.55038019118475   10.99852104133145   -0.20035243342367
C         2.23153586590525   12.62895219514585   -0.65520251808723
H         3.00124896943395   13.38091528474424   -0.56684666438822
C         0.93012202170560   12.99498816513721   -0.96394390958493
H         0.68605118857481   14.03523530613003   -1.11905450925956
C        -0.05858166661266   12.03051651218168   -1.06775622498649
H        -1.07214014164987   12.31889317248673   -1.30480868486002
C         0.24353961171627   10.69488826079420   -0.86602374360771
H        -0.52973614021452    9.94295176060776   -0.94253862044557
C         2.92483866470862    8.12309493051749   -1.74088110843741
C         2.91051475719252    8.86512708907829   -2.91649268670566
H         2.35893698861571    9.79399768477681   -2.96411405854828
C         3.60420554256600    8.40628686776067   -4.02227737693040
H         3.59265762103834    8.98080393111096   -4.93684513152535
C         4.31069619664897    7.21607366838945   -3.96039714463523
H         4.85042752945155    6.86456475287285   -4.82692240615200
C         4.33104368138623    6.47773281906758   -2.78715575004384
H         4.88626131727766    5.55287969400946   -2.73798906994792
C         3.64485348539189    6.93235128963203   -1.67763378000957
H         3.65875032438341    6.37238319626095   -0.75039366735049
C         0.51658514795813    7.68067617847992   -0.28849365425115
C         0.06533296050644    7.02317715996107   -1.42767507714000
H         0.64624895416807    7.05747298298030   -2.33897085876323
C        -1.12956535230426    6.32706205754248   -1.38644484215864
H        -1.48163066742890    5.81657547775141   -2.27080947510091
C        -1.87343792095286    6.28340633030559   -0.21822408965974
H        -2.80507047851661    5.73818622087532   -0.19360518699106
C        -1.42205513655674    6.93303371043290    0.92015306899768
H        -1.99893176933502    6.89414032608906    1.83205255071450
C        -0.22664489120291    7.62545935488448    0.88832750090024
H         0.14422496469577    8.12783765433490    1.77348653286267
C         4.22103316580188    8.48154735025574    3.47111202138727
C         4.29732922657942    9.43098164513658    4.48905086491632
C         3.64446139743084   10.78235651037871    4.57274001717652
C         4.11911881274707   11.66023347488404    3.40810272482349
H         5.20198203980524   11.76188979299979    3.43068703358853
H         3.67427630611653   12.65181012487120    3.47535170980092
H         3.83440591785469   11.21676511328858    2.45494032430735
C         2.11997250776463   10.62717782063434    4.50536063842235
H         1.63617966043962   11.59751613488133    4.60541133867949
H         1.77209666249965    9.98049739409187    5.30806492979645
H         1.82095533373646   10.18731958144031    3.55428392481582
C         4.02500708362339   11.44924627199459    5.89627637129408
H         5.10307367367781   11.56425971966900    5.96049083333599
H         3.70631436141757   10.83143149602442    6.73070646030154
H         3.55569307378831   12.42818178795062    5.97650059208369
N         5.01163249844901    7.49202164019982    3.96880941902469
H         5.23187630931346    6.60824526638895    3.53721832726248
N         5.52070829446788    7.80165757408196    5.16643107254729
N         5.09136388668537    8.96411097900117    5.47824471872940
P         2.06700004827680    8.62151069715687   -0.22082934251320

