72
CSD_code = LEXLUV | q = 0 | S = 0 | Stoichiometry = C35H29NO4P2W | MND = 6
W         4.41063209990225    4.36200044222159    0.38556818564099
C         2.45327384101608    4.04036111641171    0.24977607160357
O         1.32713337597913    3.82548597107512    0.20591770733137
C         4.77216893626404    2.75260322748857   -0.69889491745215
O         4.96356277123042    1.79543397613405   -1.30266012444426
C         6.36650774383910    4.65303231834606    0.59123093613375
O         7.49406839023921    4.75588651303080    0.77091621520782
C         4.54201517781396    3.23121946088958    1.99703238919649
O         4.68311137736702    2.53245499783089    2.89686090632413
P         4.35997430569422    5.62853484120367   -1.73109761220474
C         2.69364483286263    6.01443454298243   -2.35570865328712
C         2.21799449996759    7.31464763665057   -2.48500760817665
C         0.90444195999551    7.53870219613115   -2.85811157915807
C         0.05588863116837    6.47177877754359   -3.10032960727042
C         0.51911329059460    5.17282145458997   -2.95833804969316
C         1.82745543952354    4.94459729873785   -2.57802760779966
C         5.30580675822358    7.16851174876498   -1.97268472991886
C         5.41276246949767    7.84551262316963   -3.20342634824453
C         6.21562319588290    8.98798602939062   -3.26499568407569
C         6.90254180028085    9.44456390102239   -2.15952406693323
C         6.81134131415606    8.76773655192779   -0.95301254653111
C         6.01954333909313    7.63933315072714   -0.87648158921478
N         4.69356579337888    7.46155553710019   -4.30581100874662
C         5.11198117641617    4.63176559898034   -3.07342986841167
C         6.46128722819699    4.33583264220413   -2.88650823376161
C         7.14469554086398    3.55844370514105   -3.79958686994328
C         6.48663146527144    3.06065960030316   -4.91382146823695
C         5.14925046083140    3.35431447039657   -5.11086072380342
C         4.46141044566303    4.13909520768271   -4.19958234308034
P         3.88816608373283    6.31864394573976    1.77857103379565
C         5.30185423018820    7.17467062967883    2.54708781216290
C         5.62326779149797    8.51405596549875    2.36581654282865
C         6.74781134492672    9.04294541063828    2.97703575557285
C         7.55544603932914    8.24417019107688    3.76779032017490
C         7.23955050892919    6.90650147948010    3.95089300590232
C         6.12077883874753    6.37477166741567    3.34101902229170
C         2.89481475512589    6.05155328648893    3.29233820116523
C         2.19566096714188    4.86804850388811    3.48450410160593
C         1.43840213826543    4.68096132442480    4.62821426896698
C         1.37678847513402    5.67391821572165    5.59022674870359
C         2.07396241836551    6.85762660887315    5.40613292740017
C         2.82828272457050    7.04720163751958    4.26430448144842
C         2.90557992023618    7.67227279607237    1.02355669201409
H         2.87630148693164    8.15120466596316   -2.29779179266221
H         0.54131009471707    8.55143411886945   -2.95758775399641
H        -0.96876723423352    6.65053163336933   -3.39102332988010
H        -0.14416232616559    4.33856120946135   -3.13361781199420
H         2.18805193248219    3.93222897146243   -2.43897130205815
H         6.29476851827334    9.51210933564397   -4.20744609988065
H         7.51876237522890   10.32775187677161   -2.24174855094148
H         7.35486832612160    9.10821118546298   -0.08514096791102
H         5.94722789512584    7.09421827935806    0.05669557469048
H         4.37658854144276    6.50531524760064   -4.33461753290529
H         4.99507230813947    7.83866418679222   -5.18947475097258
H         6.96714744066188    4.72121317738824   -2.01008060801768
H         8.18864365504685    3.33242688604450   -3.64056967205735
H         7.01510298390623    2.44288964410973   -5.62436140684972
H         4.63203568024470    2.96937744429190   -5.97788926464366
H         3.41539112960177    4.35559638403461   -4.37177816347862
H         5.00855760025882    9.14641675878710    1.74167882546972
H         6.99399469603089   10.08553641626090    2.83273824906643
H         8.43281037517653    8.66195773579500    4.23910255608761
H         7.86967170429537    6.28014714369884    4.56472204309074
H         5.86588325607071    5.32912601257281    3.47009217167749
H         2.25051891661529    4.08729783129608    2.73900308906171
H         0.89990551961852    3.75545338185199    4.76897688181716
H         0.79050086850661    5.52614303245281    6.48513640897865
H         2.03170628088410    7.63294863263983    6.15752847823265
H         3.38067576385326    7.96813630750599    4.13080806606113
H         1.98045584303677    7.22953272229137    0.64900178086089
H         3.45479235506093    8.09280266765400    0.18065491848044
H         2.66519011557927    8.44871990995342    1.75046787962737

