55
CSD_code = LEXLAC | q = 0 | S = 0 | Stoichiometry = C24H23O5PPdS | MND = 5
C        11.72741662686530   -0.41278609946294   19.77521275268451
C        10.84422278380103    0.32018004800769   18.98419635366353
H        11.22473133924863    1.05678439242548   18.29069129601115
C         9.48051267152152    0.09976250492986   19.08540769226035
H         8.80148194058639    0.66720711651780   18.46526981156571
C         8.98047065885657   -0.84305618935736   19.97163160338111
H         7.91560467947592   -1.00794598895529   20.04216694268156
C         9.85347704536027   -1.57060171443346   20.76585823426634
H         9.51029800638515   -2.31408492868299   21.46810059968668
C        11.20996359882705   -1.35069591160524   20.65309862554606
C        13.59603172151747    1.50347706658959   19.03409411591744
C        13.93321488732076    1.89115388216050   17.74918479908360
H        14.12631690922915    1.13473025447649   17.00231289537599
C        14.01068288570043    3.23551536651237   17.41700744213034
H        14.26766472503378    3.53023345570949   16.41073296372122
C        13.75769674600584    4.19757272713264   18.37712452069425
H        13.82035307781783    5.24510891326682   18.12253780775624
C        13.41895185172233    3.83444200392709   19.67297226230894
H        13.22481962005445    4.60223834600673   20.40575505158520
C        13.33571929734886    2.48987337736993   20.00243528183241
C        12.76467058981694    2.88059678466582   22.30112635534883
H        11.89487116472251    3.51645853807957   22.10462075984078
H        13.64145222427001    3.50497891469952   22.50251382412883
H        12.56584889352599    2.23922334798461   23.16110485055751
C        13.95814757623190   -1.23059553496426   18.26528802986101
C        13.09442258006775   -2.09054265045730   17.61071155333308
H        12.06519893386070   -2.16026096219188   17.92885353905219
C        13.55712899837681   -2.86077814046616   16.55513412617946
H        12.88391828858447   -3.52833054550920   16.03945892620911
C        14.88306948105798   -2.78140091518010   16.17064700607438
H        15.24543993318415   -3.38756434370401   15.35353489995991
C        15.76550264608601   -1.93539656120503   16.82672393309920
H        16.79896744639517   -1.90428393662186   16.51802133386398
C        15.30244872437390   -1.16143269372721   17.88012458099617
C        17.35708571449509   -0.02364251532841   18.21089837621940
H        17.39922881589533    0.28031547107481   17.15988259574114
H        17.99940708901465   -0.89731322213692   18.36199738226790
H        17.71063744775138    0.79875956618774   18.83004339875266
C        16.31484814235318    0.69266942387862   21.53656500451103
H        17.09412689522146    0.11814212143880   21.03911570688327
H        16.31462972933142    1.74581129667496   21.25668919825273
C        16.12929334839219    0.39603877761847   22.89848029541636
C        15.43157848685490   -0.12206514456647   23.78235726258664
C        15.04922340409720   -0.56304446729379   25.11888989810950
H        15.78279863124667   -1.26884832778333   25.51243575856685
H        14.07904870916826   -1.05989151383219   25.05677821219641
H        14.96904474331471    0.28897480363123   25.79663090625130
O        13.53376394264588   -2.47142835707876   20.78595097256580
O        11.78253734496061   -3.33420516638027   22.27208355470244
O        12.74477068691509   -1.14512753709509   22.68573618316629
O        16.03188592188270   -0.28093989297300   18.61403189240878
O        13.00027221637885    1.99300212274873   21.22736263079607
P        13.53793155520701   -0.20837767998826   19.69922578921179
Pd       14.48089022479774   -0.23505509569558   21.75172076653807
S        12.41027839684560   -2.18175458710025   21.68616944413269

