79
CSD_code = LEXMEG | q = 1 | S = 0 | Stoichiometry = C38H32N3O3P2W(1+) | MND = 6
W        -1.91708708468649    5.18198306746870    9.53852784154591
P        -4.08217955402814    4.14388066627747    8.95742789623187
P        -1.79571752432525    3.97511057923114   11.72438058841710
O         1.04835029498678    6.15156886602671    9.82336702670300
O        -1.87267977762945    6.75238672771481    6.82870021000980
O        -2.78879949462655    7.75399095420697   10.68740589022191
N        -1.27392546093625    3.28444961303805    8.40002163919972
N        -2.45342076803918    6.70942230456857   10.28392003457759
N         0.51985586081625    2.52055819298002   10.47324183545121
C        -0.02059809979649    5.75945140346392    9.74081637813354
C        -1.91457391939898    6.11432046931008    7.77204898435900
C        -2.23903725219220    2.22346775790121    8.22137890296455
C        -1.81521723794701    0.94906605519469    7.86619898907978
C        -2.73670460372010   -0.06405528011672    7.67507635520620
C        -4.09104921243085    0.19151607619687    7.82502793997304
C        -4.52042218555443    1.45424102957086    8.18558654308934
C        -3.59927940170440    2.47937682994011    8.39392995829673
C        -4.84834026648712    4.93945698153856    7.51356959327205
C        -5.29821360850617    4.25087626098054    6.39397066117372
C        -5.86673619867179    4.95011666740111    5.34282522213773
C        -5.99512829861519    6.32765438992938    5.40657496537392
C        -5.54688256275958    7.01794837315731    6.52240296652421
C        -4.96832687196812    6.32802450002560    7.57036620947182
C        -5.51347371741101    3.79064347488365   10.02436581250343
C        -5.45712357230147    2.70659741883614   10.89684637294648
C        -6.48797675017315    2.47816420297922   11.78724288768855
C        -7.57786706952725    3.33357033327339   11.82053997633161
C        -7.63688524692397    4.41383994848775   10.95576482877443
C        -6.60722409582039    4.64964247983424   10.06188563366853
C        -3.15342013690591    4.25646203145768   12.90384148253689
C        -4.18564019189067    5.12479210657372   12.57000159831228
C        -5.19255430528085    5.39224536974400   13.48055785316989
C        -5.17026491503529    4.79849174574022   14.73069108795987
C        -4.12875448766471    3.95151880794993   15.07882237169797
C        -3.11724438508743    3.68656353345964   14.17593831014901
C        -0.42483221124954    4.55065048342290   12.79002575161988
C        -0.22141132977053    5.92631480943290   12.86890412368136
C         0.76336258133407    6.43758815283095   13.69256692419939
C         1.55406134196188    5.58016409036373   14.44220303785399
C         1.34935831890524    4.21230691413947   14.37561894082835
C         0.35970154070396    3.69475429355602   13.55754156408612
C        -1.56295523584112    2.16800679739832   11.68292214626626
C        -0.42451559456875    1.65117249503242   11.04257900520804
C        -0.28417978896728    0.27561707437298   10.89631649632611
C        -1.25472654139853   -0.58562622656253   11.37098962533420
C        -2.37237329347138   -0.08203482831292   12.01531984805792
C        -2.52112925036384    1.28376636349455   12.16964278180107
H        -0.45663392034847    2.90245136044796    8.91138733483573
H        -0.92627769748677    3.55423510966678    7.47333971227289
H         0.69240238540091    3.35342752138786   11.02887126057300
H         1.39313660741577    2.05835526298368   10.24795799651180
H        -0.76015956097789    0.75220225386980    7.73856535474251
H        -2.39880274716653   -1.05148148811919    7.40286437966030
H        -4.81064181442990   -0.59609326468973    7.66566332163296
H        -5.57411116641886    1.65166291966319    8.32358728189836
H        -5.19617262063330    3.17647867614543    6.33636052996376
H        -6.21013991616792    4.41540984248864    4.47030304828953
H        -6.43980098920410    6.86573792125333    4.58393115378875
H        -5.64169506344680    8.09188066734377    6.57128267915546
H        -4.60149464804022    6.86282810837940    8.44101708240946
H        -4.60788198390651    2.03819694470947   10.85962614906600
H        -6.44309470107302    1.63202215824846   12.45646834583509
H        -8.38197694054879    3.15524358978371   12.51750743455173
H        -8.48802273841756    5.07729011046999   10.97692334306748
H        -6.65695227709472    5.49523336731330    9.39028702763332
H        -4.20318942467799    5.59531424807326   11.59386255735096
H        -5.99038988159481    6.06799721867345   13.21365906531179
H        -5.95597374654749    5.00499739719968   15.44081220864176
H        -4.10101541132783    3.50399333493343   16.06073761052954
H        -2.29443621858751    3.04362130766571   14.45680511177676
H        -0.84542734238681    6.59465962699811   12.28709637251112
H         0.91523138682507    7.50424881215149   13.74975512388319
H         2.32664715384252    5.97857616190595   15.08104519082662
H         1.95876742060549    3.54354260840789   14.96445536565567
H         0.20050234452315    2.62481081247161   13.51802739667113
H         0.59705451179208   -0.11560975922340   10.40787832419289
H        -1.13111867559507   -1.65009925921265   11.24906626058318
H        -3.12497111108658   -0.75150111686745   12.40084902526282
H        -3.38617964828486    1.67234318699165   12.68611185847375

