36
CSD_code = LEXMIL | q = 0 | S = 0 | Stoichiometry = C16H18SiZr | MND = 14
Zr        2.74107823142367    5.29969138591998    2.80339928075973
Si        2.65729087607438    6.08896471162635   -0.39228590268914
C         2.35715984628601    3.18848953321405    3.80635237021493
H         1.34674502298170    2.76323721375040    3.88111356392927
H         3.09657539883857    2.37734787810429    3.74493749491409
C         2.65068546360476    4.17542587692157    4.79212431300341
C         2.93849993182428    5.35419926105721    5.08109128077178
C         3.19675861749633    6.69260510229632    4.66357681258458
H         4.21429635225250    7.04490323560532    4.88226427929088
H         2.46480027543823    7.42797690377592    5.02677858553928
C         1.34634285586423    6.07782258920917    0.96992807630007
C         1.23561752537818    7.06575855603890    1.98762863970661
H         1.54429855018244    8.10305166519253    1.89250153804542
C         0.47193483040575    6.53035873814132    3.04675228195591
H         0.09696717828959    7.07702361906141    3.90340271570736
C         0.15115205641438    5.19949631273821    2.72572996443333
H        -0.51014934041537    4.55820880670756    3.29542767214602
C         0.71420392155469    4.90379879234223    1.46596724804384
H         0.55234388598701    3.99112412339790    0.89949018910408
C         4.03682683380332    5.48842345510251    0.75282220031320
C         4.70294483887323    6.30454315567416    1.70885887576121
H         4.84577009427651    7.37842853214231    1.62829604272762
C         5.32420638723829    5.46361696508506    2.65670418646597
H         6.01835883476967    5.77399854156550    3.42804838789440
C         5.00725297510781    4.13208238166722    2.33462633046280
H         5.41800731234949    3.25407826409658    2.81788137163124
C         4.18823528035635    4.14154168432806    1.18551101836790
H         3.86624592077713    3.26423354910431    0.63174026676404
C         2.27329546016386    4.84961628627810   -1.79161050197499
H         3.08620678057415    4.81639105784960   -2.50857056364119
H         1.37386223272549    5.13779292650852   -2.32460525236143
H         2.12561372032477    3.84395331877750   -1.41141558164760
C         2.97633574189949    7.83282692054743   -1.09754019469147
H         3.79065371909796    7.81438253769535   -1.81351945247757
H         3.23474859467374    8.54351606133865   -0.31954376637804
H         2.09553379310735    8.20629005713899   -1.60846377097783

