35
CSD_code = LEXMAD | q = 0 | S = 0 | Stoichiometry = C17H14FeO3 | MND = 7
Fe        1.71713156478697    0.12517063206154    2.59194386154971
O         1.58486441410737   -2.16709291319528    4.37665171828401
O         1.94998924843768   -1.79272322257984    0.41428835061323
O        -1.15886697535723    0.71056165715923    2.45273022382138
C         1.67848572578041   -1.25211153279201    3.69125984885315
C         1.89392833556127   -1.02442844595012    1.26468395652210
C        -0.03167669473325    0.51842496285070    2.49074567912788
C         3.42319035295351    1.47770660697686    2.11464566612519
C         3.32409727235083    1.23281127285083    3.49286006039658
C         2.07734896202523    1.61579781634515    4.08188191328158
C         1.54871498849926    2.99083533432189    3.71420934905830
H         2.16794139924251    3.73728389221999    4.22415258943317
H         0.53151757578198    3.10560261324667    4.09119153733698
C         1.58586828655278    3.21740891456802    2.19726168877865
H         0.57062010751652    3.30261315094774    1.80923276190327
H         2.10342376836108    4.15407461366737    1.96515172891952
C         2.31149033165136    2.09782014176788    1.46742757759289
C         2.30800210765439    2.11691178441231    0.01867361036117
C         1.55711828415157    2.90514695834949   -0.77062028902609
C         1.55456683192626    2.91627922382430   -2.21957027953860
C         0.77077900210770    3.86865386656880   -2.88009067581954
H         0.18662243492280    4.56642815742653   -2.29613137527476
C         0.73299332307469    3.93264867882851   -4.25844910041489
H         0.12062215561688    4.67737403792142   -4.74604856996264
C         1.47771428529982    3.04341113973832   -5.01585098232596
C         2.25587235811437    2.08963289011094   -4.37907409912991
C         2.29530812397627    2.02415031822532   -3.00072939548994
H         2.90273557595803    1.26764245362044   -2.52827009090149
H         4.29754334234238    1.17271224715280    1.54957486710512
H         4.13591393027275    0.78573116156124    4.05502212454754
H         1.96829185392035    1.40596368341186    5.14486792820088
H         2.98121112027187    1.40255491855918   -0.43913362248567
H         0.88136600724071    3.61929755771089   -0.31920270085184
H         1.45030298929916    3.09103137319844   -6.09430691878893
H         2.83536761033176    1.39037405491284   -4.96447894180144

