48
CSD_code = LEXNUX | q = 0 | S = 0 | Stoichiometry = C17H26ClCoO2Si | MND = 7
Co        3.69165647748023    5.98653174187311    4.42019994264799
Cl       -2.47335175601864    1.04913446738615    0.12449945268682
Si       -1.87234515228722   -0.09336820895515    1.70796669066072
O         5.47115303853503    8.09518323488965    5.28345776990531
O         1.24095992602269    7.46439193045935    4.82975955769767
C         3.59577886543871    3.91505029582443    4.90466758249151
C         4.92653746295186    4.29850731296343    4.63310187485674
C         4.98963703950778    4.79378762177229    3.27044846866822
C         3.69731000296948    4.71541808843179    2.71022869036270
C         2.81071451555765    4.26195027439536    3.74982887056343
C         3.12602483153475    3.12838334343290    6.09009688852712
C         6.12515562912312    3.96896631489333    5.46847026141316
C         6.26148183669324    5.04293608849574    2.51996386002417
C         3.34693716460743    4.88906584203302    1.26416482722598
C         4.76163684127196    7.25886712116729    4.94328638641173
C         2.21680201348956    6.88105415351673    4.66855087682307
C         1.38894197669766    3.83570454276541    3.52550578909595
C         1.34489282788451    2.39073420780465    3.01345514932740
C        -0.08067674465487    1.94263178056041    2.70342354423296
C        -0.12621752292877    0.49296105127523    2.22218443632543
C        -3.12898289361879    0.14230886802624    3.11966189802183
C        -1.81391767091926   -1.91275934925265    1.15017655685100
H         3.33604521203295    2.06814337210269    5.93218024060542
H         3.63591702932304    3.43938307078839    6.99954928628863
H         2.05579471195215    3.24573637473770    6.24039957438183
H         6.51849690285740    2.99543106073348    5.16836181014516
H         6.91461494651959    4.70575187807861    5.33930238334371
H         5.86804934202062    3.92169734930171    6.52400560028951
H         6.65651073662991    4.09353509416897    2.15237234078626
H         6.09302965893183    5.69494038516629    1.66615671759843
H         7.01633111854412    5.49823695654336    3.15690738337512
H         3.55541260052923    3.96336950256734    0.72319164115892
H         2.29328873349044    5.12565735415186    1.13960128483774
H         3.93288960027916    5.68389750190271    0.80750332808801
H         0.90823566111227    4.48895813540761    2.79434070722687
H         0.81747001363271    3.90656809023109    4.45353900649268
H         1.95390039857287    2.31141247997316    2.11038466651985
H         1.78033309683457    1.72880815798796    3.76530685179734
H        -0.69441778303898    2.04899910911047    3.60031393026333
H        -0.50250279420492    2.59427463903991    1.93546783458094
H         0.55451098565703    0.38726489848728    1.37460644577916
H         0.26497135395436   -0.15209202191841    3.01060136304608
H        -2.82108745705793   -0.38509798811369    4.01716376728214
H        -3.24431231669695    1.19163233462869    3.37538128773749
H        -4.10895534171008   -0.23246110986473    2.83830208068607
H        -1.52135077363715   -2.56723596422336    1.96484448630510
H        -2.78527107029298   -2.24363915196668    0.79536184605133
H        -1.10473327557181   -2.05731223277516    0.34055476050610

