137
CSD_code = LEXSUF | q = 0 | S = 0 | Stoichiometry = C60H74FeS2 | MND = 8
Fe       10.84519297066925   10.56214174026200   12.10286880248224
S        10.50799195296011    8.87474077671767   10.94730232682887
S        11.19583005799777   12.23152256827577   13.28140105342281
C        11.75615387092453    8.36726933558059    9.80904191801914
C        12.73610728303763    9.25148018680189    9.35614724435375
C        13.66458512332733    8.81044559076642    8.42107225364664
H        14.42175922624246    9.49797677351340    8.07235052340328
C        13.62139699387383    7.51266533354233    7.94253161674517
H        14.34605937739261    7.18245282019958    7.21323038429726
C        12.65302261610111    6.63610440264292    8.40298411368297
H        12.61765790430722    5.61888513475253    8.04053203986173
C        11.71553073757102    7.05173565032625    9.33715376004033
C        12.79780226016912   10.64091889768996    9.87633771047125
C        12.17036105792469   11.67819918597867    9.17419884309098
C        12.28595059357561   12.97721488262370    9.65254715729872
H        11.79889749645114   13.78422385743253    9.12719100278496
C        13.03562757977398   13.25558594312687   10.78013319832334
H        13.11959730828145   14.26983311842806   11.14090322068745
C        13.68194946538301   12.23301560370181   11.44900317746005
H        14.28118719935944   12.46637892124031   12.31515475057786
C        13.56723096562731   10.91594578062335   11.01670021625030
C        11.41039405305747   11.39603196704772    7.89771337986553
H        11.58946998210512   10.35441183805731    7.61234809347964
C         9.90867587288247   11.56675912536993    8.12560198333608
H         9.57620172177620   10.87166551193409    8.89309108500914
H         9.36039483243968   11.36179303296236    7.20867101069785
H         9.67887021927274   12.57897879629858    8.44997295527438
C        11.89682826447834   12.28451315478566    6.75126914487656
H        11.64745548715385   13.32756095653927    6.92717818888025
H        11.42845256851813   11.97652908754849    5.81886713691397
H        12.97569065550046   12.20227907759623    6.63874942965435
C        14.31430451064606    9.80929162064962   11.72805594293336
H        14.16100270577584    8.87581308520820   11.17766133932738
C        13.75459543829333    9.62333635844324   13.13772925236496
H        13.92448122274096   10.51394796305821   13.73800673150523
H        14.22535168774284    8.77440316954388   13.62830996939172
H        12.66938479702777    9.43971388898761   13.08286247179285
C        15.81692793151370   10.09116912318000   11.76649085776070
H        16.19870521994902   10.23974758996050   10.75896085306016
H        16.34315445045060    9.25093250851776   12.21436738763895
H        16.03346918935801   10.98124456100616   12.35105160092774
C        10.68347744628755    6.12533777677073    9.86379542263067
C        10.96878220386420    5.35357845431778   10.99274405778289
C         9.98417711119499    4.51701629880443   11.49945495563439
H        10.18499488903473    3.91971004646461   12.37657127717870
C         8.74245442908068    4.44220350575667   10.89825678334762
H         7.98356092022470    3.78826087277452   11.30419422787343
C         8.46919285277566    5.20907156197866    9.78213809990705
H         7.49351789060232    5.14775930307019    9.32334558380285
C         9.42964949920359    6.05942363886894    9.25258207711579
C        12.31317530512953    5.44346188150305   11.67822495516582
H        12.96127639840113    6.10212195838130   11.09110262757642
C        12.15114779586192    6.06083730919683   13.06876696482819
H        11.66437574988010    7.03180595764429   12.99110671201175
H        13.12281659467117    6.19217235937748   13.54083790091257
H        11.54278946958757    5.42173115918053   13.70445736728700
C        12.98948031507146    4.07383671370355   11.75944046021210
H        12.41878160845359    3.38966403889772   12.38228320685466
H        13.98551843466982    4.17320508626377   12.18631604831548
H        13.08152282246190    3.63818194208525   10.76676168576833
C         9.10480430375632    6.91425593354641    8.04928978676529
H         9.99292085403696    7.49820912078620    7.78693620017662
C         7.98171231314884    7.89657657178583    8.38811175911817
H         7.05496557564291    7.37002244646326    8.60383058783149
H         7.80772988663476    8.57535794062315    7.55563718532904
H         8.25986645907018    8.48042941250746    9.26293918472481
C         8.73572236412136    6.05019521675132    6.84252614805704
H         7.83530974639812    5.47227778247829    7.03571834274236
H         9.54367082028568    5.35916233990879    6.61126415634142
H         8.55889370205480    6.67849695362356    5.97187951173112
C         9.93909760962705   12.71753472625792   14.41852068329613
C         8.96039355011867   11.81779052254798   14.84124542995617
C         8.01094905139096   12.23759095400603   15.76423339876227
H         7.24576923599126   11.54363584885488   16.08142423028185
C         8.03534729294356   13.52841257048241   16.26306887401080
H         7.29247129235715   13.84298697875436   16.98089902049167
C         9.00812703701421   14.41800403281341   15.83848279169050
H         9.03081986940855   15.42862182427724   16.21990526791223
C         9.96596074225770   14.02367562780935   14.91571889885955
C         8.91832729588960   10.43633922540662   14.29778567918464
C         8.10453721723485   10.15839162820246   13.18949453247137
C         7.98526647972759    8.84218856971994   12.75676698533433
H         7.35756628638292    8.60666691366273   11.91163947241564
C         8.65713143166369    7.82205756833869   13.40349893530203
H         8.55856475800321    6.80613823176221   13.05110450323347
C         9.45195793178741    8.10300538440172   14.49963427298090
H         9.94926724882489    7.29479795638952   15.01294711572577
C         9.59623995001308    9.40459385837813   14.96302419975150
C         7.33365529080387   11.26688270362891   12.50681526858586
H         7.46681534303382   12.18780590545938   13.08278012019978
C         7.89781888371850   11.49981956330805   11.10600893685908
H         8.98071826424619   11.69107084402323   11.16651276148877
H         7.42281093233386   12.35720414915131   10.63555001199849
H         7.73404295987475   10.62559885304273   10.48120267987734
C         5.83672683808511   10.96017217770067   12.45058097755557
H         5.63687701724140   10.09157037139610   11.82900468508068
H         5.29819840925577   11.80875764654452   12.03418175050901
H         5.45315769262542   10.76469778395615   13.44936113337766
C        10.36850058841712    9.69414145970679   16.23125481525647
H        10.53879876916319   10.77373278734976   16.29412834696961
C        11.73128351921173    9.00520873642592   16.26827163497279
H        11.63024721350800    7.92353154679958   16.29834034958714
H        12.27712013496176    9.31801628662765   17.15599263254107
H        12.31284347694215    9.27691176839106   15.39237967384521
C         9.52418347715003    9.27374195693253   17.43823054138785
H         8.57980147392320    9.81251260569777   17.44894298999648
H        10.05465911033433    9.48999494486317   18.36306264582462
H         9.31150382691380    8.20762698737016   17.40064516367709
C        11.01405485154700   14.95364232451516   14.42952180799900
C        12.24070747450418   15.02189231361560   15.09390794868634
C        13.22957216939624   15.85531121595101   14.59057577382666
H        14.18750370943834   15.91346725999945   15.08558483551868
C        13.00748448874259   16.60864823154002   13.45391812138143
H        13.78825461844459   17.24946888992145   13.06913976910308
C        11.78903145433370   16.53878884652063   12.80626848485416
H        11.62747601919634   17.12876703273152   11.91611874071643
C        10.77884476213276   15.71467411434390   13.28211908364602
C        12.50617308566040   14.18065530689950   16.32155330664033
H        11.57908108616344   13.66826898782159   16.59885800765611
C        13.55662079424201   13.11302604928419   16.00730147609631
H        13.22237611529828   12.50451287255636   15.16961607548489
H        13.70967389000021   12.46598691279245   16.86877373520159
H        14.50740702755947   13.57143289441547   15.74475331394016
C        12.93671826724459   15.04347191280341   17.50869160910343
H        13.89150817337113   15.52705205391484   17.31848040703747
H        13.03879200400980   14.42765611963588   18.40002501469864
H        12.19436200450842   15.81429213171000   17.70499008709586
C         9.45874149827816   15.63132818192189   12.55001870227109
H         8.78620328134340   14.97936171644027   13.11692237901412
C         9.66000453398108   15.01021968385009   11.16632307920248
H        10.29665712547546   15.64119972637101   10.55049396952708
H         8.70239900166185   14.89021034492464   10.66321706079133
H        10.13209315061968   14.03308877618503   11.26033347698712
C         8.79701344735501   17.00644604624092   12.44272171070463
H         9.39426322011424   17.68360442671633   11.83728384840495
H         8.67565986519000   17.44606885071020   13.43046996389557
H         7.81497476455802   16.91420277078806   11.98301939383011

