23
CSD_code = LEXVIU | q = 0 | S = 0 | Stoichiometry = C7H9Br4NPtS | MND = 6
Pt        2.47723333779436    3.89718246470438   -0.04858053975941
Br        2.04924365822519    3.13047108389743   -2.36267482897249
Br        3.36222551012726    1.68931707999018    0.52904107723154
Br        4.75359014033457    4.77669213345054   -0.68958800674407
Br        0.11297598338797    3.20674871148127    0.57535575517099
N         1.76799271376254    5.91373332139870   -0.32474556574683
C         1.50105798016950    6.63971383641880    0.76534477806065
C         1.49416436517587    5.95838730395828    2.09728451413754
S         2.91555590009337    4.80522830659301    2.25508562112650
C         2.25038142477231    3.61132742287083    3.43644054005971
C         1.20768873593809    7.99377060532384    0.66121020695057
C         1.18494494920349    8.59352078033281   -0.58658531014770
C         1.46110352111880    7.82095957328751   -1.70252937889693
C         1.75430857172645    6.48121445179358   -1.52377530785386
H         1.55384302453714    6.68408120935268    2.90804645307483
H         0.58299394179897    5.36000054334586    2.19947073155061
H         2.99062867969543    2.82007331596740    3.52287508005059
H         2.12029334281853    4.10825584310247    4.39341940055921
H         1.31080712811532    3.19809667178808    3.07676698769829
H         0.99918035003052    8.56259851936704    1.55321024408814
H         0.96092443732386    9.64453364284419   -0.68156507016629
H         1.46013848942245    8.23995531132737   -2.69475670789734
H         1.98462381442938    5.84593786740511   -2.36885067357439

