39
CSD_code = LEXVUF | q = 0 | S = 0 | Stoichiometry = C16H16N2NiO4 | MND = 4
Ni        4.48220560595530    4.85029266089359    7.68678822012088
O         5.05448485620128    3.53605040669250    6.53392034412148
N         6.00574878418408    4.67058594583036    8.72367410506265
C         7.01555339754559    3.87763246871598    8.57560536185255
C         7.15269729965678    2.93577985353079    7.52358355043372
C         6.12465367693149    2.83018283877977    6.54484484287150
C         6.30929556783335    1.85955324566187    5.49825194999797
C         7.43492502008676    1.07819777622777    5.46052209157591
C         8.43349606750916    1.20448878715053    6.43976918124698
C         8.29645187167034    2.11137850737142    7.44792625572356
O         5.28223062707055    1.81627605545051    4.59884448702303
C         5.36582462628962    0.89729896639424    3.54130021645407
H         6.04694822630234    5.29571364132208    9.53139939093397
H         7.83604039835871    3.91244584615287    9.29563787801406
H         7.57421309445154    0.35065677513558    4.67606048687099
H         9.30666848755160    0.57342435270844    6.37968540799640
H         9.06006012162527    2.21404301197845    8.20500992118490
H         4.45486874573258    1.03081442772993    2.95956869825201
H         5.41293495087274   -0.13473679079699    3.90613671417976
H         6.23371236978245    1.09433995975113    2.90242066595751
O         3.90992537643715    6.16453331921563    8.83965635289009
N         2.95866323763599    5.03000038849815    6.64990056279585
C         1.94886660531290    5.82296572441677    6.79796018520257
C         1.81172537492523    6.76482259312913    7.84997863215303
C         2.83976314234010    6.87041083483624    8.82872443952063
C         2.65512295797517    7.84104270700957    9.87531536787293
C         1.52949600839819    8.62240214141464    9.91304149619620
C         0.53093103262084    8.49612059690851    8.93378676224983
C         0.66797755063151    7.58923417805667    7.92562698502844
O         3.68218308486505    7.88431512626039   10.77472801789800
C         3.59859584336566    8.80330179258376   11.83226387196896
H         2.91746108117575    4.40486955215483    5.84217783445446
H         1.12838352547631    5.78815955934723    6.07792277036936
H         1.39020339601209    9.34993675023031   10.69750820310915
H        -0.34223765101431    9.12719062417209    8.99386647443733
H        -0.09562317560211    7.48658068628558    7.16853405658317
H         4.50956160917553    8.66980778293073   12.41398274618220
H         3.55146428282992    9.83533122124471   11.46741795548691
H         2.73072292182749    8.60625568462423   12.47115751572705

