59
CSD_code = LEXVUH | q = 0 | S = 0 | Stoichiometry = C23H17F6N3O7S2Zn | MND = 6
Zn       -3.87488544145198   -2.49718186024890    2.47903021045392
S        -3.11540653314078   -2.14634126636635    5.03384191877116
S        -5.03928826314252   -1.99440130384462    0.09515183264180
F        -1.48104147166674   -0.26059773634532    6.01423257253988
F        -1.08156154366617   -2.22554202307652    6.80193438147018
F        -0.53610153488284   -1.74751176801207    4.77271385741400
F        -7.55916564122535   -2.63284069725789   -0.64427116230608
F        -6.87729004954293   -3.59316435207655    1.15503541832434
F        -7.44199759492886   -1.51774679029195    1.19474001869468
O        -3.24250590914503   -1.26951439605517    3.86018141004099
O        -4.08517204912458   -1.93180362036582    6.05992795272907
O        -2.86244050174910   -3.51284330550628    4.65849476708673
O        -4.68256960655990   -1.21611495744239    1.29135262649596
O        -4.38042833551331   -3.27465306454849    0.07917313726649
O        -5.06435084419816   -1.24536055909765   -1.11412959824974
O        -2.46183126229881    0.59048010715440    1.79635371196139
H        -2.63491755820431    0.29906420155493    2.69773591822625
H        -3.27642541772398    0.40581040900634    1.31811967843218
N        -5.63795620890610   -2.82359182158332    3.58174716218513
N        -3.98031404601607   -4.46098159220836    2.52072229143819
N        -2.08015998107430   -2.97763375751600    1.58017405075080
C        -6.34028996307803   -1.88326378903697    4.18945249386854
H        -6.14487040910602   -0.86998766551091    3.86958487543013
C        -1.46561023425345   -1.55762009768844    5.71419020191506
C        -7.27517026053129   -2.17090031555866    5.17271051715369
H        -7.82133786078372   -1.37485820416301    5.65147322416956
C        -6.83392025545160   -2.44852695589879    0.45559926751690
C        -7.47306186459877   -3.49361721959152    5.52869711224457
H        -8.18124388758157   -3.75744330125785    6.30001587265738
C        -6.74489536978566   -4.48063138337862    4.88307958647267
H        -6.87502465347180   -5.51702771481099    5.14939146837804
C        -5.82733487625167   -4.10819430255500    3.90846139120946
C        -4.94950938831430   -5.05464519138900    3.20064055508256
C        -5.03569203227243   -6.44012278088294    3.24432427534194
H        -5.82908780684960   -6.93651832237883    3.77906888742742
C        -4.05772240624049   -7.19616341043668    2.59589002412852
C        -3.01416781638894   -6.53042428491069    1.95140136901106
H        -2.23657394211715   -7.10198047971257    1.47145512353475
C        -3.01007832359732   -5.14024863866874    1.93126190557772
C        -1.97114413064586   -4.28968432994550    1.32604807037917
C        -0.93534690673363   -4.79189814028595    0.54651804659326
H        -0.86854308250524   -5.84650938616043    0.33417338142761
C         0.00535718487601   -3.91686475936351    0.02602492594224
H         0.81364077618478   -4.28726435270095   -0.58697657522015
C        -0.11649699421710   -2.56710189336559    0.30353262133088
H         0.59132519822168   -1.85001859290771   -0.07967091995469
C        -1.18248377110690   -2.13984704548159    1.08526488344500
H        -1.32751662915967   -1.08947310328123    1.31540493936360
C        -4.11733346633144   -8.66405295657832    2.61027220496359
C        -2.96426244042382   -9.42012211352399    2.81118505889335
H        -2.02259599194769   -8.92135756340345    2.98562454917667
C        -3.02788397611437  -10.80108124553328    2.82800178739813
H        -2.13020358481128  -11.37728102762447    2.99476537732822
C        -4.23847665871537  -11.44523684011990    2.63203508280221
H        -4.28527297878034  -12.52359822616620    2.64017703498810
C        -5.38893595356224  -10.70165503014486    2.42602200699889
H        -6.33350910872712  -11.20020143717889    2.26829792932935
C        -5.33214341222752   -9.32038192516433    2.42150949083589
H        -6.22697292842486   -8.74362581910757    2.24082979649937

