24
CSD_code = LEXVEQ | q = 0 | S = 0 | Stoichiometry = C8H11Br2NPtS | MND = 4
Pt        1.70682213758361    8.14354775132242    8.49101758018681
Br        2.03766079324093    6.87913867469548    6.49675194407970
Br        0.78339555169122    9.93694682043584    7.25247047772255
N         2.58033842919789    6.73283257298109    9.73758278548745
C         2.33742601233837    6.81512080081236   11.05716919712111
C         1.30446580118681    7.79357336004308   11.51986367665887
S         1.28065052738128    9.30525073856511   10.49123766632498
C         2.90238821259749   10.00312369765094   10.91845048978462
C         3.00312939839673    6.02166254776580   11.97482426557543
C         3.94607082207811    5.08953140618690   11.54950574915062
C         4.66088964401130    4.22041034799853   12.52750774570130
C         4.17650968630133    5.01573554450858   10.18010968820187
C         3.48464049157190    5.84419059401173    9.32022244170676
H         1.45016766605968    8.07478097960268   12.56345489851850
H         0.30276469049763    7.36902612834391   11.40418301557929
H         3.05839150098180   10.85046759675314   10.25651606940755
H         3.69414612041698    9.27186926136907   10.77897877036558
H         2.87094814105799   10.34350768966255   11.95044585918986
H         2.77760420922213    6.12420426873161   13.02573551594673
H         5.17976129167087    4.82813737122724   13.26752002146346
H         5.38287884902189    3.58275660203398   12.02564173446823
H         3.94764722488242    3.59168404610077   13.05914379268375
H         4.89248347149573    4.31794825189100    9.77725628911446
H         3.65141932711527    5.78945294730579    8.25371032556090

