71
CSD_code = LEXWER | q = 0 | S = 0 | Stoichiometry = C26H30B10I2P2Pd | MND = 4
Pd        1.58718458483853    3.22052345795062    9.68589958341370
I         0.54169258463367    5.55402107134169    9.18272773592659
I        -0.60826655392242    2.03596942461929   10.46877876115363
P         3.47597226828864    3.84845665513078    8.66420003813261
P         2.66279865853507    1.41773749514596   10.44830167259705
C         4.50498048681511    1.57443376232003   10.18701187611213
C         4.93149776905834    2.83258462072321    9.25576862670755
C         3.17235686403651    3.43747156129186    6.90661930335879
C         4.12631423861440    3.49877872527760    5.89301852808207
H         5.13948443800058    3.79369640587352    6.11209994848862
C         3.78626841126241    3.17375408262012    4.59237842307283
H         4.53856845061447    3.22674020455706    3.81955862073680
C         2.49372247375023    2.78805596889784    4.27862612430358
H         2.23484860337432    2.53786725739835    3.26113730913749
C         1.53353896516406    2.73246737600468    5.27407178291917
H         0.51972695257065    2.44479276322848    5.03954362266046
C         1.86966217881509    3.05517606134058    6.57590461173285
H         1.07780329590796    3.03087234855710    7.33573950242748
C         4.07776555424867    5.56259614592748    8.71356528215537
C         4.46686541325900    6.28378555816363    7.59219629465899
H         4.43770109332395    5.83540801938217    6.61128957240457
C         4.86633614721839    7.60216429182728    7.72757150083743
H         5.16610964320574    8.15766525042084    6.85163743899208
C         4.86718982126458    8.21097780474537    8.97003132101152
H         5.17411014080488    9.24117343093164    9.06649633959247
C         4.44639390012069    7.50602804718016   10.08666308041286
H         4.41425514565245    7.98572405605887   11.05282683151253
C         4.04594583083098    6.19226159159041    9.95750014798872
H         3.67556181251432    5.65698685693848   10.82457569192679
C         2.45641434297740    1.48484924472214   12.26383324322932
C         2.09844811068582    2.74192040846276   12.76217142830788
H         1.93994522170765    3.59307288058636   12.08205585224036
C         1.89544051878059    2.93602617579569   14.11370791517409
H         1.61065239093714    3.91093911584148   14.47942690559220
C         2.03620836711682    1.87302001578587   14.99101194163115
H         1.86612281585058    2.01772465313490   16.04680144886903
C         2.37831270855112    0.62292977386040   14.50712424431247
H         2.47624079295907   -0.21199961852740   15.18462796907735
C         2.59049425145710    0.42591859001817   13.15341763527611
H         2.84749928345366   -0.56044950833352   12.80570195578038
C         2.24716987451551   -0.20614916117612    9.73780388440721
C         2.59652655441309   -1.44786641749003   10.25759930051691
H         3.16272301473620   -1.52991401768375   11.17106713015866
C         2.22705228126190   -2.60374691784970    9.59302784143206
H         2.49448464823075   -3.56291134745201   10.01056621083361
C         1.52120017791759   -2.53780678447598    8.40385047462312
H         1.23266376208893   -3.44528097788299    7.89582511905240
C         1.18468242086043   -1.30545872734446    7.86953913639130
H         0.63449595239059   -1.24327959850673    6.94306566680143
C         1.54542717908862   -0.15045254279286    8.53427574272639
H         1.26034879436757    0.81380213906080    8.11904954603047
B         5.21564747898012    2.92755922739178   10.95060885521134
H         4.49036637726711    3.61153061374935   11.57580773180950
B         5.65186051641722    1.28568150805330   11.43045820872450
H         5.24502852545326    0.88175659664361   12.45613485533463
B         5.58822588232131    0.26386719681212    9.99186966478464
H         5.16145884244999   -0.82667559466667   10.05795298041009
B         5.11037598814556    1.25835767907209    8.61380627703034
H         4.31841011727360    0.93093777235047    7.80356309301376
B         6.36311909319312    2.48529652070466    8.37893723046745
H         6.51861280635679    2.96475586948178    7.32239428504743
B         6.41190393196758    3.51694621975575    9.80619888288072
H         6.55480891104044    4.67630952444472    9.67805072087574
B         6.90450725548470    2.52476286145286   11.20105340492256
H         7.50262381093086    2.97723682871756   12.10367957024747
B         7.15003087579019    0.85330784969417   10.59589056767554
H         7.92683255172736    0.12113988954739   11.08426669283454
B         6.80676945328995    0.83205370638196    8.83561945010301
H         7.34407007638310    0.10339921928437    8.08831067301939
B         7.62770242354764    2.23828385333288    9.59267468868307
H         8.74670244477593    2.50153498454417    9.35483200192070

