93
CSD_code = LEXXOC | q = 0 | S = 0 | Stoichiometry = C28H44N12NiO6S2 | MND = 6
Ni        3.64707128772606   -0.00024115796005    0.00000055430610
S         5.56025141760079    3.11070797670650    0.80705670396690
O         4.72387787038058    2.25059860336210    4.39536082059477
O         1.15055133859862    0.32728002520064    6.61088563244092
O         5.04423423342508    1.73081163622183    0.67696033278531
N         2.48737367916860    0.29101146659719    1.56851503546625
N         3.96315435176606    1.79972005349880    5.31253838113313
N         2.23878561345196    0.92512052165639    6.36035394376931
N         4.59250740617005   -1.25671371541415    0.95189390690665
N         4.94263264762311   -2.31362262926686    0.60660395593299
N         5.33062799723977   -3.36091503889333    0.37393013045309
C         2.99320048413398    0.64000610955139    2.74353003012305
H         4.05979134345548    0.81514203141983    2.77698714847919
C         1.17726801123955    0.07591442953517    1.46616946027262
H         0.80772207060554   -0.20155543360661    0.48916182334358
C         0.32303106103666    0.18234494316821    2.55000715809913
H        -0.73102597857568   -0.00896939106636    2.42617872941921
C         0.83445322957518    0.53620768192572    3.78320796696657
H         0.20058519215307    0.60966695098030    4.65281842776895
C         2.20510392830592    0.78305528709848    3.88966023892452
C         2.79554782664910    1.16161135486445    5.16429780881895
C         3.01535555429869    1.57577060195501    7.43981537901090
C         2.22953031184970    2.83917855613995    7.81218545550362
H         2.13492348196231    3.50801319148696    6.95932519164468
H         2.70660312350205    3.36583923077599    8.63321166835253
H         1.22957907913049    2.54125107489096    8.12095818574699
C         3.07915474022808    0.65124206394753    8.64864285898879
H         2.06332342252284    0.44680126982333    8.97856124923892
H         3.62701729074604    1.12664110879395    9.45720214964134
H         3.54588093939449   -0.29814113175749    8.40626389338150
C         4.35884536399248    1.86122267194236    6.73288589640627
C         5.40662233735023    0.75734578341124    6.92549156282865
H         4.99483726051329   -0.21931269764476    6.68106947083755
H         5.77770836249295    0.74897214127683    7.94590865208577
H         6.23946622763307    0.94998056610267    6.25220128468672
C         4.99385906158169    3.21366351111731    7.03320908270841
H         5.88159078369780    3.32564407379507    6.41526165329282
H         5.28173139675133    3.26779270811066    8.07903804173764
H         4.32204183137878    4.03432794052045    6.80182515462114
C         4.31253357359086    4.03222112405550    1.77962586854166
H         3.38271532637693    4.03338134090013    1.21384968505562
H         4.66856109729278    5.04790287937125    1.90892956274163
H         4.18410149575214    3.53735170123243    2.73770084995636
C         6.80225948654851    3.02187007843127    2.16361185754731
H         6.32194856319560    2.62077919278829    3.04949893066231
H         7.18126914795741    4.02086419957991    2.34510448493226
H         7.60825118141185    2.37122060703267    1.84075387657809
S         1.73322615528748   -3.11072758385903   -0.80711128874834
O         2.57042880245125   -2.25070903481371   -4.39563695180421
O         6.14415845413629   -0.32729311349739   -6.61046499558560
O         2.24955217116698   -1.73096661935511   -0.67687556131170
N         4.80675916124149   -0.29147830335579   -1.56830729090244
N         3.33132124562062   -1.79978588311457   -5.31266154566198
N         5.05585983912869   -0.92511550419717   -6.36015507289844
N         2.70150981806897    1.25612538357154   -0.95204017139090
N         2.35182857523093    2.31311084850881   -0.60654342919291
N         1.96299763908171    3.35990632294065   -0.37316731244462
C         4.30105776796639   -0.64039806604868   -2.74340305386478
H         3.23446162652201   -0.81548162152092   -2.77700556113121
C         6.11686581968873   -0.07643278795953   -1.46580234425733
H         6.48631917245512    0.20098751331054   -0.48874371211221
C         6.97122554868312   -0.18287276586857   -2.54954168900561
H         8.02528053985259    0.00836342275862   -2.42557383913996
C         6.45993264980115   -0.53664003786183   -3.78282400303606
H         7.09390121047850   -0.61008446428935   -4.65236218379047
C         5.08927888391805   -0.78339666249166   -3.88945232985502
C         4.49894968053627   -1.16176694558965   -5.16419802780624
C         4.27938197362075   -1.57555232154641   -7.43980506038141
C         5.06517214885319   -2.83895689947084   -7.81226548652306
H         5.15959076664369   -3.50795012368305   -6.95950889953592
H         4.58819944116137   -3.36543562803260   -8.63346689843968
H         6.06519599802230   -2.54104445318661   -8.12082050096119
C         4.21578441073867   -0.65085713993843   -8.64851777782370
H         5.23166342608727   -0.44648088882897   -8.97832758425822
H         3.66793860321749   -1.12609438616643   -9.45718400887733
H         3.74913872839774    0.29854505925011   -8.40605980750182
C         2.93578855630966   -1.86100612696155   -6.73307355113121
C         1.88814253784144   -0.75699089852004   -6.92559751015333
H         2.30003326692746    0.21959440345164   -6.68106475788465
H         1.51708387609487   -0.74846804524275   -7.94602330172296
H         1.05526066572255   -0.94960016456011   -6.25234662706525
C         2.30068155256450   -3.21332683347476   -7.03372629566089
H         1.41289329834757   -3.32536149716616   -6.41586973680765
H         2.01288425990340   -3.26720515935565   -8.07958934809628
H         2.97241251285324   -4.03409837178175   -6.80247370290122
C         2.98080031582301   -4.03232695880438   -1.77979526991410
H         3.91054368086364   -4.03372056018322   -1.21391339794315
H         2.62463752078975   -5.04793756687623   -1.90927842802823
H         3.10945942748579   -3.53736670660628   -2.73779652009491
C         0.49141843311083   -3.02145214315587   -2.16384100718969
H         0.97193093697922   -2.62080056012087   -3.04981706695721
H         0.11173628433844   -4.02022703897626   -2.34513852950546
H        -0.31414283677693   -2.37022858118117   -1.84107869724256

