62
CSD_code = LEXXOB | q = 0 | S = 0 | Stoichiometry = C21H29AuN6OP2S2 | MND = 4
Au        7.09175707116190    3.71689224931960    5.75324737287344
S         5.78650775201379    6.03172803662016    5.01936624391853
S         7.98336960626451    6.02500448279487    7.00267849470640
P         8.98391018108208    3.77987839151412    4.36493552613152
P         5.35002625471776    2.71428448185883    6.93079069816152
O         6.96516396762322    8.13789513756604    6.06570512248829
N         5.99336045688702    1.44206696647912    3.70378819330259
N        12.49567499111200    2.40820109166102    7.82321522758205
N         8.97490100569119    8.71038719591964    3.00776984972513
N         4.39809217647168   -2.36691978156623    7.29429964599757
N         1.06068074334818    3.53136586853950    4.22492115232895
N         5.42458355726539    4.87895473107654   11.60299189608251
C         6.88778298474374    6.83019267002749    6.01442569273695
C         6.11860527282554    8.94600914029347    5.25604184644787
C         6.72296028755752   10.33446213337944    5.18503387531803
C         8.97326948304162    2.84432387401591    2.76551759271791
C         7.56275132495748    2.79119791248277    2.16060958512759
C         6.67944073236695    2.04349016903441    3.01386389122509
C        10.47989426242024    3.07634855086160    5.16119547391603
C        10.79707476472015    3.80738076973156    6.47127663289501
C         9.57543467995162    5.44979276039791    3.87583030507904
C         8.58521690282282    6.15704704346592    2.94230839336297
C         8.80381839894215    7.58167361360364    2.96533071343117
C        11.74414387029959    3.04309136503758    7.24263668694630
C         5.29412514383723    0.87820002324958    6.83006454610184
C         4.05091723948668    0.19233495114622    7.40840233338836
C         4.23181767257891   -1.23832898924423    7.34818421977012
C         3.69348633798477    3.28684727631176    6.38677476990037
C         3.52876151422846    3.13283253682897    4.87130064297047
C         2.15895534731997    3.36495201751756    4.49280525197012
C         5.27211685301626    3.03244059940762    8.74181970368588
C         5.48834918608567    4.51934572482034    9.04646157710616
C         5.46327529926615    4.73907626419294   10.46974347929914
H         5.11824598076135    8.96136224510009    5.70632976628396
H         6.03840788055403    8.50076887090418    4.25707303708204
H         6.06420288049519   10.98652122080530    4.61944975059311
H         7.69047577267491   10.28840237371254    4.69167947701605
H         6.85420420584405   10.73558762243418    6.18628463753195
H         9.32010749125974    1.82745439219097    2.97416282821034
H         9.66936843933918    3.31079264159228    2.06123450860904
H         7.58489192772319    2.30935030583653    1.17799967068556
H         7.14344514316809    3.79565835377962    2.04448203394307
H        11.33007220529879    3.11461522261529    4.47037822766545
H        10.25388667981599    2.02420296398967    5.37186618601819
H         9.88436134024716    3.94397514564026    7.06305813931074
H        11.21822101318049    4.79815050261751    6.28161526509051
H        10.57134328798393    5.37834074249993    3.42247376294078
H         9.65529233939802    6.01499887860022    4.81159854367150
H         7.55680755941298    5.98115843527304    3.28834598340378
H         8.67757108047349    5.80264209415568    1.91133162990959
H         6.19398731569614    0.52934987034230    7.35061082474366
H         5.41375385642199    0.61936949872568    5.77378285679530
H         3.15583466888937    0.44393849678982    6.83286481877084
H         3.89040077922141    0.46966323837094    8.45431911331823
H         3.62115391161621    4.34833611170006    6.64513180998596
H         2.91158814777007    2.74703199228154    6.93375752448782
H         3.82096373319260    2.13275560717319    4.53641683274783
H         4.16566932976375    3.86152391433312    4.36059611295680
H         6.06597561087440    2.44186843227993    9.21310512089612
H         4.30519949355217    2.70350272608211    9.14037606373311
H         4.70678383612571    5.13355593848280    8.58861481583626
H         6.45525876734192    4.85647290314007    8.65362402109335

