71
CSD_code = LEXYOD | q = 0 | S = 0 | Stoichiometry = C36H27AgN3O3P | MND = 5
Ag        3.46018949742516    5.20771707458795    1.58675578244385
N         4.59016286431933    2.63748219155502    1.15605480697808
O         4.22122003095630    3.39340450491393    0.23834050410127
O         4.30543559075203    2.95882454738156    2.32331130177482
O         5.21113467353333    1.63024023247010    0.92031002567986
N         1.40030978582224    5.76023228492112    2.51551108296754
C         0.65900698873214    6.53665820793197    1.74507223832419
C        -0.43098446105535    7.27847926622147    2.25013448404090
C        -0.72639932863754    7.20919742100707    3.58220069403589
C         0.05632450706610    6.39246067521479    4.42740679019679
C        -0.16644953432223    6.26271618805943    5.81108453895814
C         0.63321103524354    5.44846871150393    6.56690560194405
C         1.67853721546439    4.72312810149118    5.97338858107124
C         1.92092958153413    4.82430549858031    4.63133916404712
C         1.12568673970407    5.66903036851471    3.83329593763334
N         2.34199913344075    6.51662763848415    0.08457497509736
C         1.04395540656230    6.59151662223095    0.33236416936748
C         0.08246530050774    6.69435339637067   -0.69458686265740
C         0.49394987721572    6.69898497599962   -1.99786033059591
C         1.87199387360419    6.61121952250851   -2.29187970384134
C         2.38957520486666    6.59511842831797   -3.60067984398505
C         3.73874844523193    6.50189690836873   -3.81079054797567
C         4.62694217839930    6.43149637209037   -2.72611826660021
C         4.15584121615896    6.45037868616739   -1.44260363805157
C         2.77181459149121    6.52363571764252   -1.19595662913439
P         5.62515215983069    5.57437632626402    2.90349252882879
C         6.50036492925662    7.17981649214765    2.80961308023726
C         5.86795019169259    8.23855195149009    2.16984954742084
C         6.49955059882102    9.46489023109027    2.05806778728128
C         7.76900767247436    9.63683579226351    2.58365092561059
C         8.40604499708195    8.58222242695128    3.21981884072647
C         7.77762665042790    7.35633134280643    3.33212406130390
C         6.99130380924960    4.47963653264699    2.39317556449737
C         7.17774951507659    4.32711800324459    1.02202040114561
C         8.18505640925751    3.51449578273374    0.53919716641157
C         9.01920996403155    2.85073383850352    1.42335036519938
C         8.84596116190411    3.00891520057926    2.78770931160447
C         7.83796329899886    3.82101707132641    3.27662836538453
C         5.51535076417594    5.30553091312919    4.69841396450226
C         5.27875629565694    4.00977302391448    5.15693087432681
C         5.12703674178850    3.77227300920392    6.50993319637799
C         5.18668403754678    4.82261107016311    7.41344519232306
C         5.38862257643716    6.11439355167411    6.95762525892866
C         5.54964349854746    6.35956331311312    5.60526962507219
H        -1.00040389364005    7.90978170919262    1.58574293921737
H        -1.54848762078021    7.77210351838792    4.00109049581627
H        -0.97637278338625    6.81839982763794    6.26174092090649
H         0.45943632057388    5.35379276387090    7.62852863084096
H         2.29311324749947    4.08079269474354    6.58528312778659
H         2.71244193064995    4.26448891069463    4.14699623848755
H        -0.96573729148722    6.73609270468834   -0.44190247209452
H        -0.21888901907057    6.76177450495210   -2.80760323464994
H         1.70160539930254    6.64837125889023   -4.43228593163781
H         4.13020237906152    6.48128496666045   -4.81707602863119
H         5.68747929060076    6.36021347237980   -2.91509040359317
H         4.81876200493088    6.39752291496857   -0.58509896496180
H         4.87261455573311    8.08772559593913    1.76276673596436
H         6.00378187514023   10.28534517066210    1.55973935422050
H         8.26500521035244   10.59240659212619    2.49670862061816
H         9.39744254776823    8.71793632298476    3.62691131815470
H         8.27357147129738    6.53106370208122    3.82347950301686
H         6.50701720243919    4.82934021882498    0.33477688972844
H         8.30859174943483    3.38540070665855   -0.52569104876056
H         9.79776565853539    2.20286166886061    1.04907109419274
H         9.49516041065405    2.49065785746123    3.47875536748733
H         7.70401701331944    3.92802941393704    4.34368209494094
H         5.20646807804723    3.20267747645975    4.44164690160977
H         4.96000152109886    2.76444227403149    6.86215719040314
H         5.06927100972031    4.63551266946496    8.47110357680506
H         5.42297542551103    6.93616068855344    7.65857928132371
H         5.70533062045788    7.37036097904933    5.25419688989267

