45
CSD_code = LEXZIX | q = 0 | S = 0 | Stoichiometry = C18H18N2O4PtS2 | MND = 4
Pt       -0.21817594213386    3.76347365839227   10.26108493636262
S        -1.72559712948751    3.50830798285466    8.56937309224729
S         0.99065577178535    5.11609022708791    8.89417845891237
O        -1.85682656138186    3.60448303570528    5.20157133850380
O        -2.64553003979676    5.56844229492453    5.96343081429625
O         0.05507749907057    6.02453732695245    5.22418223637785
O         1.76174099709000    6.52704877879840    6.59888833451824
N        -1.18274097100206    2.56223911789343   11.57791024596019
N         1.02624919772301    3.90888396650509   11.84504083961095
C        -2.31833361908619    1.89613899355117   11.35783474799124
C        -2.90491498848644    1.08445357684053   12.30209256677521
C        -2.30429773374930    0.93356898709216   13.55565845678698
C        -1.12721533271273    1.62701479875065   13.78052830803893
C        -0.57623859411407    2.43673126459556   12.78701373434572
C         0.65386588659518    3.19482191923988   12.93752559330779
C         1.42577936784733    3.21597119852488   14.10195975693846
C         2.58556131671556    3.96461020971128   14.16559141133655
C         2.94332393911738    4.68962373554186   13.02157140150618
C         2.14762005705483    4.63364501958671   11.90213642783206
C        -2.89943715312390    0.06495000092398   14.61463065516263
C         3.43211173232887    4.01298835793827   15.39380455886883
C        -1.87547514342640    4.48093325448134    6.02230366349462
C        -1.09183599465301    4.46413120509058    7.29638736837684
C         0.07180593497370    5.15131544741655    7.42107529039757
C         0.59816498499856    5.92824040865169    6.30357219818426
C        -3.35516217914513    5.75291910762503    4.74723504268167
C         2.34017155140725    7.29236028610236    5.55783074027836
H        -2.76628738764090    2.02522966079922   10.38172150041763
H        -3.82276768025623    0.56931064301164   12.06874156300532
H        -0.63451325067034    1.53492887701592   14.73510527170781
H         1.11460261456564    2.64360585701255   14.96091601927986
H         3.83849162294705    5.29036933534449   13.01562679710998
H         2.40466641616482    5.18506368198887   11.00766688676235
H        -3.15283624529844    0.65954595126368   15.49139664591467
H        -3.79903746298617   -0.42577428560929   14.25450550133529
H        -2.18513957439844   -0.69579123909025   14.92591771820276
H         3.03455487382044    3.36791341280737   16.17248341188633
H         4.44878856778638    3.70005847319188   15.16141843070476
H         3.48063879255414    5.03260256038555   15.77380983451095
H        -4.02708391124539    6.59183355250136    4.91028816043661
H        -2.64690425317364    5.97442884498818    3.94671428610535
H        -3.91375955640426    4.84956765365925    4.49287167708199
H         3.30153350711673    7.63570014747684    5.93185825886016
H         2.47015051790242    6.67951908137517    4.66287778801878
H         1.69945555477349    8.14186363112218    5.30946802946927

