77
CSD_code = LEYBEX | q = 0 | S = 0 | Stoichiometry = C28H41AgN3O3P | MND = 4
Ag       10.16684932931924   14.81171040731857   10.14316872495187
N        11.26512498061008   16.77827995458289    8.38148010009038
O        11.05959008976838   15.62553802847616    7.96722790283119
O        10.71720169655081   17.12630241149068    9.44092970736197
O        11.98737721832406   17.53758211148431    7.77606366161922
N        11.26510150518794   15.74968297210798   12.07373756081352
C        12.54179680093525   15.84796539065124   11.69470671948883
C        13.45332661191960   16.64434813578722   12.38706948331120
C        13.01441816044268   17.38307712701774   13.47021238886767
C        11.68322874485001   17.29185437287854   13.84350116585337
C        10.85590537145523   16.45047541133644   13.11716538928884
N        12.24985919897834   13.94889728499242   10.27100790744951
C        12.93956536343543   15.07597666374939   10.50559092537649
C        13.94905468047098   15.51864160660545    9.65562245781786
C        14.25902838987042   14.77076696063464    8.53294307399321
C        13.56873685939489   13.59078098804538    8.30972451126434
C        12.57740112280603   13.22668068340708    9.20507978981519
P         7.83753260737897   14.17740730488563    9.53363771337440
C         6.71580496333435   15.52408220850894   10.16502008707340
C         6.99647293790791   15.65811846733614   11.66356528723210
C         6.24241136933933   16.83110964041784   12.27988098322096
C         6.62255216233292   18.12585419033811   11.57166451248390
C         6.30389168796441   18.01095870519186   10.08614378170100
C         7.05638141010947   16.83887421765648    9.46180007565503
C         7.62585291758401   14.20410481724697    7.68735345960992
C         8.62981750122053   13.23466604155097    7.06002932178182
C         8.60626870084920   13.36700928800164    5.54015026667923
C         7.19980995796489   13.12545343623295    4.99900063899155
C         6.20859975344339   14.09498127363900    5.63562153072075
C         6.21805910194686   13.94627358674892    7.15638542253340
C         7.03681598933163   12.56101556862211   10.04221628762171
C         7.81804816404307   11.96422220865833   11.21527616899038
C         7.32518535645375   10.55342493042708   11.52339807320271
C         5.83024800930696   10.56723809531436   11.82987733823603
C         5.05359024234117   11.17765016876403   10.66726183714978
C         5.54656045179608   12.59485551992216   10.37541928748089
H        14.48805762821957   16.67701127237076   12.08482790360859
H        13.69902475656771   18.01801655240427   14.01319470865164
H        11.29506453167861   17.85801410849732   14.67526034774689
H         9.81459448212439   16.33462267405482   13.38769291354494
H        14.44383902948933   16.45917156919842    9.83846712356654
H        15.01441259403098   15.11188391785484    7.84198629386528
H        13.77846027087998   12.97551869368251    7.44947510589089
H        12.02241792452204   12.30554095725651    9.07576233110668
H         5.66257863000680   15.27277599313046    9.99736568027243
H         8.07709887499741   15.81682524514386   11.78495735907281
H         6.73340907643673   14.73473882147123   12.18499851589339
H         5.16590059546265   16.66531404756566   12.18389179540485
H         6.47443947273162   16.90024596127832   13.34518106483688
H         7.69235520044419   18.30732102494558   11.69418707938447
H         6.08131493892360   18.96734240325003   12.00897879685428
H         5.22764208898599   17.86549576967129    9.95523894436088
H         6.58214572686253   18.93298144797393    9.57320787551964
H         8.13521866324666   17.01570671439360    9.54493362153533
H         6.79982350202216   16.78024476703045    8.40275898977710
H         7.94187792154049   15.21405002584632    7.39743606855699
H         8.39092349083495   12.20423604284851    7.33762607079954
H         9.63123389744925   13.47315016534971    7.43320677678760
H         8.93685759707874   14.37047425353138    5.26697941080542
H         9.30383339568371   12.65423246362723    5.09605145469338
H         6.89528359937167   12.09931000751413    5.22102858582872
H         7.19256312246802   13.24753922731682    3.91414155360792
H         6.48289329932764   15.11815182634225    5.36971085113163
H         5.20277861882286   13.90705381456336    5.25261331805517
H         5.90341887037879   12.93217044710925    7.41157813250269
H         5.50713535865833   14.64823564038461    7.59832066021067
H         7.18197410921015   11.89768398308050    9.17907094464154
H         7.69319666230427   12.59351697912425   12.09950858874794
H         8.88562577421751   11.94815452782295   10.97172701027024
H         7.51162695092927    9.90788605528926   10.66172462371728
H         7.87625007969240   10.14437672707230   12.37237232955359
H         5.65123194030084   11.15583297551544   12.73266221710817
H         5.47880895553954    9.55100308468837   12.01887070416791
H         5.18374715501361   10.55593872254268    9.77811589300537
H         3.98762204584965   11.20162689084148   10.90365503801876
H         5.37403631425625   13.21342682817270   11.25754717347157
H         4.97311344555899   13.01561719117230    9.54835259894126

