72
CSD_code = LEYCUO | q = 1 | S = 0 | Stoichiometry = C33H34AgN3P(1+) | MND = 4
Ag       11.38139662710181    0.73442613911694    5.41936128300285
N        10.98629973692906    2.72576533648802    6.76287547150228
C        11.95019828262744    3.64307863889150    6.74437139098552
C        11.96634189991548    4.71352340422478    7.63105646086510
C        10.94423223137124    4.83629907648480    8.55671130872965
C         9.93900377779997    3.88139083729253    8.56709294644833
C        10.00725986910495    2.84503240084823    7.65289307600179
C        13.01570716348806    3.50862844206625    5.68416324218653
N        13.37315065067902    2.11537753378678    5.43903037828879
N        13.27171268296543   -0.63762368316628    6.11476187339895
C        14.36718012749311    0.07611658559810    6.36883649110508
C        15.61592335123117   -0.51481094995103    6.51017407901531
C        15.72638585870872   -1.89017842374709    6.38784929339206
C        14.58303853025967   -2.62847774585239    6.12611707187922
C        13.38041756858849   -1.95567460272143    5.99665467127289
C        14.17892030060155    1.56103577976073    6.52673758485597
P         9.35350770583097   -0.49599011155168    4.66011013235981
C         9.61483260773062   -2.28608874764083    4.44482684870358
C        10.65256460771651   -2.72438514425876    3.60859978760861
C        11.47460588197083   -1.75225922466658    2.82362148123751
C        10.88523194547574   -4.08856163980205    3.49742389055361
C        10.11143319352679   -5.00751030751549    4.18537511128706
C         9.07872364874379   -4.57036287891811    4.99738023291136
C         8.83464158147417   -3.21571015081684    5.12828994969326
C         8.50271790413964   -0.02832439795133    3.11731685827644
C         8.37672667598328    1.32623498447592    2.78050818351034
C         8.89693575157011    2.39564840659108    3.68845368637944
C         7.74565329514386    1.65983831760061    1.59025576972636
C         7.24483639848553    0.68378931963307    0.74584472778808
C         7.36881851619176   -0.65256862730224    1.08464462779273
C         7.99822518783234   -1.00648359114699    2.26352498544837
C         8.03372967710800   -0.39156214497003    5.91409851219515
C         8.34193529363289   -0.61181364881172    7.26592580268180
C         9.71301574971605   -1.02980305765692    7.69722032902837
C         7.33575201260260   -0.45770161296658    8.21038454685387
C         6.05195669948669   -0.09237893386259    7.84235885750236
C         5.75316055666369    0.12412314370808    6.50850541354296
C         6.74070746451260   -0.02114898099780    5.55175072984742
H        12.76510548599576    5.43792402012848    7.59143547927962
H        10.93325722261525    5.65919857289501    9.25460347668600
H         9.12114198828705    3.93783827794126    9.26668108684639
H         9.24294007918913    2.07930791486947    7.62160057563066
H        13.89015208596896    4.10989660153693    5.97437952118774
H        12.61510303975601    3.92441459979647    4.75374255687259
H        16.48403586927161    0.09211965469795    6.71546908065797
H        16.68521254354883   -2.37350217990996    6.49413322940239
H        14.62103504976418   -3.70059784596912    6.02479930617058
H        12.46170379786662   -2.48971767857273    5.79291480786479
H        13.63522610151449    1.73721087133502    7.46146925796401
H        15.15763184888168    2.05577052583638    6.60528802516924
H        13.92067835416985    2.06737439377579    4.58289653478200
H        11.86872227103655   -0.95841228622929    3.47433773052212
H        10.86324212840615   -1.27695157647348    2.05563982432585
H        12.30880156748983   -2.25266269566187    2.33854648007128
H        11.68150698271406   -4.43644227300134    2.85543614013593
H        10.31007878886675   -6.06305910348153    4.08162654609054
H         8.46300075034518   -5.28133555168688    5.52646637507100
H         8.02321054184518   -2.87499629864276    5.75588600521944
H         8.42375346050128    2.32851113012956    4.66896831795842
H         8.70191907985986    3.38210477169126    3.27627911757569
H         9.98138950434073    2.28360260130793    3.82917507044341
H         7.64213079631934    2.70100849391493    1.32164782574037
H         6.75671857993156    0.96705928150565   -0.17382824246262
H         6.97595293717075   -1.41883643722361    0.43437902700112
H         8.09329829129271   -2.05010426106903    2.52768159670552
H        10.47947891547080   -0.34781931950693    7.29058857609570
H         9.79118379420890   -1.03410776040269    8.78150527092921
H         9.93680122225977   -2.03298610260863    7.33291147857786
H         7.56147549409815   -0.62981774678015    9.25298365611070
H         5.28797454679188    0.01986552964980    8.59609906082570
H         4.75451425593428    0.40497346389921    6.21176608540916
H         6.50484160986985    0.14827867199333    4.51118403127652

