80
CSD_code = LEYCIC | q = 0 | S = 0 | Stoichiometry = C39H33AgN3O3P | MND = 4
Ag        8.27170397764640    1.40405796399913    4.71692348819942
N         9.64581650286412   -0.87705328611454    5.63080359221266
O        10.27367841312051    0.15852166643419    5.35178587257037
O         8.47913985032052   -0.97704238737040    5.21665795434088
O        10.15000002446454   -1.75089801839062    6.29670070462568
N         6.26430646448714    0.91840365439800    6.05060362234963
C         6.68847500379331    0.60794760087938    7.25852363581745
C         5.87042025711126   -0.06845389961870    8.19140304463125
C         4.60667917471731   -0.43784003778883    7.82853722676628
C         4.13413368888448   -0.12328992909946    6.53767218507457
C         2.84718598751496   -0.45973810769213    6.07506709708109
C         2.44843968178078   -0.10353883098476    4.81627085440178
C         3.31681485899911    0.60406845323974    3.96856174492270
C         4.57423048259686    0.93735144136843    4.38528089337801
C         5.01823490748592    0.57863525235138    5.67424224900794
N         8.53496413938315    2.04896977031060    6.91112850047934
C         8.06298301249247    1.01436220712720    7.58943435188108
C         8.83713646826854    0.30816408442023    8.53256995091721
C        10.12610787894872    0.69985386880822    8.76707591411643
C        10.64846714339138    1.81365929426157    8.07936810946955
C        11.96595174451499    2.28165267241504    8.24474733937231
C        12.41639358035501    3.35326623398265    7.52442913915957
C        11.57055489746175    4.00609390767266    6.61366324478877
C        10.28648529519705    3.57629633286426    6.42809184940230
C         9.79842077064120    2.46529468296606    7.14626920380438
P         8.18286730476515    2.75422866133034    2.61636333612654
C         8.60485535304165    1.91952220389500    1.04657934486771
C         8.16609488029587    0.60663848932727    0.81991900669237
C         7.27848824710921   -0.09724741514060    1.79388712124270
C         8.55277382184646   -0.02844268442554   -0.35340490137157
C         9.34744555489121    0.60798085174466   -1.29017288971351
C         9.76771211119266    1.90787997641049   -1.06741926950375
C         9.40116565430752    2.55601556945225    0.09698619313129
C         6.53139373678764    3.44816021297162    2.26453966266092
C         5.83443404906932    4.11976179949438    3.28218377612225
C         6.46491299751750    4.38074652971193    4.61083694033107
C         4.53776248965660    4.54663936703399    3.03023710256468
C         3.92877893063039    4.32151780317527    1.80810651723250
C         4.61994479376937    3.66228469730527    0.80675799796463
C         5.91142979733431    3.22585130447516    1.03751028647415
C         9.26913617041572    4.21903546240141    2.57139132327308
C        10.62874537804376    4.06061529479867    2.88176881769652
C        11.21386759104266    2.71090775801926    3.13130157774724
C        11.43424676932589    5.19128259282114    2.91952979138417
C        10.92426898831570    6.45028935698517    2.65482777063973
C         9.58626443330900    6.59782980902851    2.33238742828616
C         8.76428913346483    5.48672645959565    2.29359281267936
H         6.24242831796925   -0.27584091744119    9.18210546747621
H         3.96026604621430   -0.96369937297023    8.51727334778933
H         2.18351566175923   -1.00173405777468    6.73357704715239
H         1.46082221350631   -0.36322524489037    4.46508149104028
H         2.98147634241019    0.88435755558542    2.98067986889628
H         5.25708307531476    1.48401467206936    3.75073940694581
H         8.43233981481003   -0.56587268229529    9.01678302909549
H        10.75524826936510    0.15464413120424    9.45503294335526
H        12.61377982882412    1.76959421897094    8.94137550662826
H        13.43056479441641    3.70336405296549    7.64930717499431
H        11.94325757278654    4.85099384474294    6.05317325097118
H         9.62171025214251    4.06657585053303    5.72863323611460
H         6.32922530718691    0.43044641748078    1.89468917041578
H         7.74291481241596   -0.15011067822278    2.78784424277281
H         7.07274252169407   -1.11322315524818    1.46636098404327
H         8.22444708361598   -1.04204597492934   -0.53395963274553
H         9.63591681193871    0.09089880774265   -2.19320923162420
H        10.38176005426550    2.41619473457812   -1.79587664110787
H         9.73348880002725    3.56982747235273    0.27041843326760
H         5.75326366318756    4.84086332373750    5.29188818019302
H         6.82171261692419    3.44474495421443    5.05900475136549
H         7.32222402232837    5.04591775926834    4.50443800555309
H         3.99428974743995    5.06235873201635    3.80911875747012
H         2.91786193729004    4.66125425673654    1.63846105857435
H         4.15606526038427    3.48548237196524   -0.15227195454296
H         6.44746407241165    2.70936121379973    0.25397987508573
H        10.67676705853750    2.18187447499960    3.92640268337190
H        11.15273889691595    2.09799824566883    2.23099355993400
H        12.25760181145524    2.78718681023378    3.42508074866007
H        12.48291540285923    5.07952727092723    3.15618666382316
H        11.57155723296414    7.31404522474265    2.69205849534885
H         9.18217457482426    7.57442912173542    2.11043694691071
H         7.72127372924291    5.60232787447336    2.03337161684139

