27
CSD_code = LEYHEE | q = 0 | S = 0 | Stoichiometry = C11H10CrO3S2 | MND = 9
Cr        3.36088509390555    3.26064194772067    4.69303315118405
C         3.39013323756600    1.87540950890754    6.58585804289973
C         3.57194743615032    3.20074018821368    7.02771686495168
C         2.64860899794214    4.19703339018058    6.63283878981146
H         2.74360560098341    5.19788570814396    7.03393687844964
C         1.53592822978107    3.86985593267859    5.85750371416201
H         0.77940949801348    4.61790388299900    5.65533625359163
C         1.35540860057371    2.54507760081754    5.41530803323642
H         0.45889280315430    2.27155109892968    4.87271557301584
C         2.28622432879282    1.56424584374784    5.75794567294927
H         2.10188562546128    0.53398882440481    5.48272649128351
S         4.49198542848143    0.63946656628446    7.20799356858786
C         4.46581408682719   -0.60488950106610    5.88082967687902
H         3.56078815702071   -1.20359638991946    5.92907898519923
H         5.32796062709415   -1.23859991117572    6.06304488199419
H         4.56692692070091   -0.10883932355607    4.92004191656216
S         4.88583512412947    3.51872410155928    8.16882336339129
C         5.28368017842198    5.25994105823051    7.82149547562693
H         5.33971997651624    5.40883564207706    6.74717528537537
H         6.25723666189053    5.42842049566465    8.27059459497365
H         4.55505093403032    5.92229157538117    8.27976343372119
C         2.81608604437618    3.84387181671744    3.05596337578636
O         2.54994725680181    4.21324680746651    1.99403420477265
C         4.43443862329129    2.23413524047052    3.63927010029669
O         5.11673206703580    1.64900160863589    2.91061131377225
C         4.68301654244698    4.46305749226308    4.34280545294154
O         5.51715191861088    5.20109879422314    4.02915490458347

