52
CSD_code = LEYKOQ | q = 0 | S = 0 | Stoichiometry = C22H22N3O4V | MND = 6
V         3.05113544902516    2.60485220401156    1.76387814920876
O         3.58978232515073    1.88852118338871    0.31548092480160
O         1.75017696269694    3.61077405533482    2.74318216933487
O         2.53012531879325    1.22087929583996    2.63955346859347
O         4.30753127158054    3.16127110401175    2.42696524803199
N         2.84487619201820    4.25859293200780    0.66804755671665
N         2.03268181843795    5.19007017136308    1.17606350760287
N         0.85345236862871    2.05227189234884    0.75731975003189
C         4.40119578312574    2.25590432500211   -0.62978315939482
C         5.21662708587196    1.34136377143781   -1.31196459070404
H         5.18457888286114    0.30424321999115   -1.01029030205938
C         6.04753587100398    1.76623288840147   -2.32611034468662
H         6.67823493666917    1.05073813046060   -2.83240148912597
C         6.07964099215673    3.10571936575774   -2.70508125881101
H         6.73385069685365    3.42426756736717   -3.50174460765464
C         5.27543159205423    4.01946183925660   -2.06188785306817
H         5.29428855506595    5.06065648620552   -2.34943765285685
C         4.43202953914413    3.62475148835050   -1.01576155112676
C         3.56396310379998    4.55424958825013   -0.36200529327429
H         3.48966917494045    5.56799098908141   -0.75895294732463
C         1.50372704021979    4.77150177807073    2.29881984993470
C         0.54824106825717    5.68561213673123    3.01738313306207
H         0.67045998299590    6.68929339464035    2.61251807450284
H         0.78644771554963    5.68523602543214    4.08222649341733
C        -0.89556075597503    5.20227228677057    2.81310958365410
H        -1.57678134099061    6.00109258155967    3.11557350240413
H        -1.05789091456408    5.01075688786926    1.74912825705190
C        -1.20673191126106    3.94301369042947    3.61803385364400
H        -0.46478469830359    3.17273828440464    3.39371503550512
H        -1.12906311562053    4.17240069806803    4.68351842329931
C        -2.60367692687671    3.40315268813655    3.32167321492172
H        -2.66363678686483    3.11466165183478    2.26904573676332
H        -3.34010398809610    4.19290458673634    3.49048765158975
C        -2.94005098315653    2.20289231766794    4.19755602646798
H        -3.92429069411858    1.81086579141895    3.95096922611332
H        -2.93759179660670    2.48655897912559    5.24750404495496
H        -2.20661104279540    1.41201428919172    4.05574301971101
C         0.02676217528682    2.50358015199999   -0.15111880810911
H         0.40431379564960    3.27978918547302   -0.80752915051906
C        -1.28701684592885    2.02693518673545   -0.29311387873129
H        -1.92536650574822    2.44414960183828   -1.05681531361491
C        -1.73167804738051    1.03583099547302    0.54188480411230
H        -2.73452159847075    0.64062482223647    0.45909267309613
C        -0.86721705618697    0.52545042266394    1.53212488164268
C        -1.21876654220553   -0.48562770934112    2.44844453048670
H        -2.20496223573753   -0.92190698292897    2.39457615841067
C        -0.31503528111443   -0.89700795598574    3.39570546483447
H        -0.59169153234270   -1.66957987659040    4.09829066934186
C         0.95998833416625   -0.33385127966097    3.48659517403796
H         1.65388459308838   -0.66600282772124    4.24491799066207
C         1.36377364454924    0.66232842868786    2.60359582344715
C         0.43132433070356    1.09290727116317    1.59997412966946

