38
CSD_code = LEYKUV | q = 0 | S = 0 | Stoichiometry = C14H18N2O3Pt | MND = 6
Pt        1.92289105323470    1.92511434539713    0.12352213404929
C         0.23364346684307    2.88151744481900    0.76392921103813
C         0.86650329401657   -0.47103735667162    1.87672572372975
C        -0.31551052012534    1.57443285622943    1.33993969339480
C         0.93542739192776    3.61194762744031    1.75758664180721
C         2.20793091796304   -2.41105647284891    1.97346915719031
C         3.24684659942900   -3.11617007757318    1.11989803122921
N         0.80566940488558    0.77605487615470    1.32427564947092
N         1.54353308164348    4.19015719111293    2.54851048158775
O        -1.44968008014919    1.32047651796077    1.63367188480541
O         0.09137053195500   -0.95996455829741    2.65008519436637
O         1.99063147400532   -1.10563222850694    1.44081340266052
C         3.50372403988741    0.52265696144338   -0.69883780419146
C         3.95616213122654    1.08589322604818    0.46540884660449
C         4.86495355771003    2.28285806505779    0.59011051752619
C         4.57163703907499    3.41237188976784   -0.42044577048289
C         3.09039173441313    3.58590617891976   -0.66784817175629
C         2.38699798896500    2.96946507753917   -1.69525064795235
C         2.96864957849643    1.99655856617913   -2.69603879732476
C         3.92426981701204    0.94998382635003   -2.08474392784117
H        -0.46985381048691    3.46796291858617    0.17184781915773
H         1.25726064856161   -2.95466133939634    1.97739983125111
H         2.54919124468557   -2.31637366222568    3.01103021793182
H         3.43953876643996   -4.10386507761567    1.52804696790958
H         4.17509780335567   -2.54995375134791    1.10902341407931
H         2.88873493845099   -3.22155535419417    0.09893328296773
H         3.03599380717075   -0.45614928862749   -0.63071753438879
H         3.84169732718329    0.50953176082120    1.38292186246765
H         5.90508376360642    1.95861628797717    0.48815745629166
H         4.74821118667806    2.68415185085364    1.60038268464089
H         4.96745694849399    4.34169718298957   -0.00954674448241
H         5.08264249475695    3.23255258055446   -1.36589105617942
H         2.66335030894263    4.49344249268318   -0.24022872298757
H         1.47267506214513    3.45609144707884   -2.04549436047785
H         3.48753888380485    2.55840509671529   -3.47888272375692
H         2.13570820997839    1.47478385843099   -3.17448359054204
H         3.92860964088628    0.07406350199204   -2.73531280113480
H         4.94442027290449    1.33102553820783   -2.05296745264280

