49
CSD_code = LEYKIK | q = 0 | S = 0 | Stoichiometry = C21H20N3O4V | MND = 6
V         8.16708128723635    2.42458549824779    1.89538429283623
O         9.43987635470587    2.93865928712111    2.56269420872388
O         8.67408172214438    1.81469166713575    0.39141786071836
O         6.89158085154769    3.34842363636557    2.96600650090431
N         7.92972417954690    4.15733289627183    0.92607188399122
N         7.15017490092007    5.05505377436401    1.53684342229404
C         9.44311069061502    2.24890684983381   -0.55974020607505
C        10.23957557172182    1.38755619560514   -1.32874007584621
H        10.22836093058018    0.33359403191875   -1.09057045153678
C        11.02493330795370    1.88310236414121   -2.34675606465033
H        11.64104707415339    1.20728759266111   -2.92102867532393
C        11.02980134473248    3.24386220926035   -2.64295582053689
H        11.64851003633424    3.61809759837695   -3.44381720156391
C        10.24519216030147    4.10719802348770   -1.91223785370438
H        10.24411147168182    5.16440530220210   -2.13476705510053
C         9.44760475182122    3.63978862392573   -0.85973362916747
C         8.60710356896089    4.52118747437191   -0.11040920182741
H         8.52348765233958    5.56080683381675   -0.43116490519464
C         6.65883879271884    4.55090870522217    2.64139179977024
C         5.80724198765288    5.42381781612281    3.52675994029941
H         5.45984603710694    6.27783075557296    2.94520881817344
H         6.44562103227218    5.79127130844248    4.33441932205470
C         4.64162207666392    4.62653152596156    4.11436847835028
H         5.04373288545868    3.73506568924098    4.60135272271644
H         4.13117321481493    5.22860344984165    4.86886433294295
C         3.64709724077442    4.20400095988829    3.03523446224791
H         4.18917237600429    3.69784392386779    2.23337243357152
H         3.17706580575198    5.09238931383035    2.60621157301694
C         2.57544760127108    3.27216406303558    3.58651922752475
H         1.87163457005224    2.99301280635293    2.80543125008378
H         2.02419373762009    3.75716582730663    4.38933841303209
H         3.02889036583827    2.36431872182800    3.97962128419772
N         5.95473960379382    1.90529543189254    0.87723592042691
O         7.65287843947421    0.99556848806186    2.70414154293043
C         5.12815107243224    2.37532464955988   -0.02219106632447
H         5.52684441472247    3.11762661300456   -0.70487070156682
C         3.78932792499766    1.96071102018304   -0.12145646493321
H         3.15514278757369    2.38704680798391   -0.88332727129643
C         3.31535134202117    1.02146923378552    0.75589153325553
H         2.29133227495754    0.67816776513980    0.70994959165469
C         4.17785267096388    0.49408943969021    1.73913530628579
C         3.79618461199376   -0.46562250231446    2.69726981065847
H         2.78208403464279   -0.83635616477117    2.69257060475656
C         4.70706336799418   -0.91192505808175    3.62104195579359
H         4.40829622738115   -1.64615340506546    4.35506507956599
C         6.02104394112776   -0.43790882898566    3.64440566487836
H         6.72241715365899   -0.80102382970197    4.38157992308691
C         6.45243466798352    0.51215137806774    2.72494653429060
C         5.50901988298335    0.98487423592994    1.75102094961438

