32
CSD_code = LEYLIM | q = 0 | S = 0 | Stoichiometry = C12H15AuClN3 | MND = 2
Au      -16.42131416157089  -11.52029945603288    9.14166214978261
Cl      -16.99801140256287  -12.75539232177042   10.92394076359579
N       -15.20331753578803   -9.26730162197871    7.59006798253297
N       -16.30018354061415  -10.55893808945263    6.27411234506847
N       -15.78247332468174   -6.64291809548443    8.46298906326350
H       -16.49060224845834   -7.12537002433347    7.93094130343867
H       -16.13515729965431   -5.84515820061485    8.96840606907757
C       -15.93013687967321  -10.40134573458980    7.55721090809174
C       -15.81054115841250   -9.53408791050540    5.50906555451060
H       -15.98251662968640   -9.46041247534390    4.45597076375110
C       -15.12022537992864   -8.71622910562730    6.33753193156942
H       -14.57843620845094   -7.81320565247970    6.14767428688470
C       -17.10799477339600  -11.65439483896616    5.77702068063830
H       -17.30326632816884  -12.29505338702362    6.64525823281282
C       -16.33612664981477  -12.44783745048955    4.72595063559439
H       -16.15077581205191  -11.84664691287493    3.83866709524778
H       -16.91035457397417  -13.32237515504468    4.43475817460603
H       -15.38266538908760  -12.78046805120673    5.12947309194772
C       -18.43348534923053  -11.12616676857169    5.23356830570460
H       -18.95612390488290  -10.55957191783398    6.00082536254651
H       -19.06302936515364  -11.95827696280864    4.93278699400658
H       -18.27398030808608  -10.48423050181468    4.36991213870983
C       -14.58496303260324   -8.73463668543802    8.74776355699505
C       -13.67244331590331   -9.50834419297124    9.44944409382272
H       -13.45363129650169  -10.50463387568848    9.09761181619804
C       -13.05293465286167   -9.00562159198936   10.57729101009977
H       -12.34844615236146   -9.61345121238655   11.12134270747125
C       -13.34751268740988   -7.71922614442528   11.00051355307543
H       -12.86924636155832   -7.31733129819009   11.88057104605784
C       -14.25937114399376   -6.94748896295001   10.31055509327257
H       -14.49559033492345   -5.94927630037300   10.64949209176636
C       -14.90454279853429   -7.43880910075115    9.17512119785338

