46
CSD_code = LEYLIK | q = 0 | S = 0 | Stoichiometry = C24H20AuP | MND = 2
Au        9.41991447451943    1.84693372775716    9.59213268309317
P         9.91010643131112    2.10352703316367    7.37752196515194
C         8.46598285632556    2.24519847534538    6.28888001477269
C         8.22853389731561    1.42746585498122    5.19055939991361
C         7.06935293887274    1.59366496302006    4.45274007774878
C         6.14792917787380    2.56558191315689    4.80614984267613
C         6.37844108769381    3.37616548525454    5.90754641518417
C         7.52978652657150    3.21234125852145    6.65201074413691
C        10.87762042218831    0.76378907633886    6.62807587970530
C        10.48837680459865   -0.53224054135387    6.96138156997216
C        11.17398382408116   -1.61546338878379    6.44656788495193
C        12.25994295496482   -1.40976869544569    5.60949440611541
C        12.65871771316177   -0.12195307182302    5.29028182773646
C        11.97295715946873    0.96790418380219    5.79691422886079
C        10.86851555555842    3.59113000116154    6.97421308736930
C        10.68700614437183    4.32867598809056    5.80878219859775
C        11.46584706976027    5.44859041788267    5.58018467458734
C        12.42249952801213    5.83550734133145    6.50537043467941
C        12.60250927815658    5.10407043931008    7.66867345506257
C        11.82452346994072    3.98651290645682    7.90586436557832
C         8.98820035575496    1.63813075600230   11.57444903345407
C         9.96092185189218    1.75804544381418   12.57155459852149
C         9.67658331693857    1.61613788047010   13.91900395229608
C         8.38472145814514    1.34370256263486   14.33022845279234
C         7.39181123081920    1.21767207445866   13.37596684047866
C         7.69630707536891    1.36337765321384   12.03332538977589
H         8.94677193827122    0.66827750874625    4.91339292865624
H         6.88527587643627    0.96015843585162    3.59734831756933
H         5.24565891824630    2.68884720260009    4.22591360046917
H         5.65674747709353    4.12930492730165    6.18716776145234
H         7.71885504320526    3.82817616113031    7.52300342011632
H         9.64707908069646   -0.67501220558696    7.62873563774910
H        10.86815139373346   -2.61925224018661    6.70167635596889
H        12.80009027467111   -2.25519378517275    5.21009583249429
H        13.50914152215135    0.03532329400117    4.64304908211813
H        12.28563710384892    1.97259774563736    5.54842746682907
H         9.94041922905497    4.02521212463305    5.08760701221411
H        11.32616374744359    6.02203841888717    4.67542113711685
H        13.02618689339253    6.71158494185056    6.32064868124225
H        13.34435319618307    5.40898231807518    8.39170044675134
H        11.94245376294994    3.41219686089863    8.81652642808419
H        10.98575863080409    1.97052018337579   12.28803109627552
H        10.46761029121990    1.71854715163483   14.65121162741587
H         8.15444863422329    1.23090766298259   15.38135839959342
H         6.37431241902343    1.00453100828058   13.67861404848183
H         6.89149196369078    1.25795254630745   11.31439729617194

