71
CSD_code = LEYMUA | q = 0 | S = 0 | Stoichiometry = C23H42CoN3P2 | MND = 4
C         7.19018144619233    0.28598015252030    8.29810279225030
H         6.23151802340455   -0.17847939392276    8.46617871887221
C         7.90047663327263    0.05260856693516    7.14420498366075
C         7.40635291619923   -0.85267182733286    6.15137915998594
H         6.47100381104937   -1.35256010903872    6.35274319821895
C         8.09537388652949   -1.07032361953565    5.00550592868515
H         7.73400485516067   -1.75593808653554    4.25256033020539
C         9.29853515251473   -0.37080153676366    4.79894104051574
H         9.85866196772977   -0.49492087706064    3.88537303356780
C         9.74553419071077    0.48727293927617    5.77400283375582
C        10.99194615479714    1.28808064825778    5.51364753772990
H        10.69969455945853    2.19842557541452    4.98005061187991
H        11.70176930164235    0.74174668858375    4.88816341145640
C         6.80253714373115    2.95629969148432    9.42565631949855
C         5.36649049516745    2.63671004068450    9.82525098886786
H         5.28775036936761    2.45321378729172   10.89462265834961
H         5.00299442846113    1.76306990903844    9.28794299023076
H         4.71832651508830    3.47896793786701    9.58245686844831
C         7.36104361170502    4.08411680860465   10.28988865513898
H         6.81033384253050    5.00358871139799   10.09024711213400
H         8.40972082172854    4.26114635101826   10.06117829616927
H         7.27186959418998    3.86574698495878   11.34923315856825
C         6.85035193231861    3.40047726616310    7.96003202528985
H         6.32614666002364    4.34531880402901    7.82314575367548
H         6.39327477577585    2.65109752882317    7.31596070883080
H         7.89206204263173    3.53184112402276    7.64636389585568
C         7.97193661577715    0.53830510050645   11.07636754512354
C         6.69952818524781   -0.25849021918436   11.35399597523520
H         6.79777292850650   -0.77895285787915   12.30674001058852
H         6.53595054455009   -1.00258929779019   10.57870703950574
H         5.82603819604605    0.38484063919606   11.40929480441459
C         8.26836162329844    1.48007523933766   12.23945946623849
H         7.38721126866819    2.05729266691407   12.50917562217518
H         9.07793792443812    2.16344440408067   11.99203859616892
H         8.56707163403350    0.90150686850056   13.11378464364593
C         9.13971459461118   -0.43793480192486   10.89960924262944
H        10.07609666390543    0.10842206636629   10.77540473005103
H         8.97826655321979   -1.05761441616837   10.01651657725119
H         9.23405372957750   -1.09058255385434   11.76654665711308
C        12.57231768341254    3.40503107330608    6.72402712611640
C        11.44363636146456    4.44196653210181    6.67489788542603
H        10.94792654506667    4.50946183367742    7.64325796105178
H        10.69525740999606    4.18508856198824    5.92589071140137
H        11.84301852999980    5.42445885951574    6.42765054776743
C        13.31334650691672    3.39777944137348    5.38734927872132
H        13.77492630619445    4.37297176063883    5.23322392633534
H        12.64019104316142    3.21631359956652    4.55327633583753
H        14.10031414352194    2.65041680290231    5.36522624268476
C        13.53237354941290    3.78918678005839    7.84887430223300
H        14.42800602732800    3.17293060677888    7.83286034002328
H        13.04899060673580    3.69127515058961    8.81916313728991
H        13.84181219148515    4.82712201340352    7.72973786945399
C        12.87833030414853    0.39399252647310    7.56597453274171
C        13.34546119020026    0.58312418897288    9.01062498562605
H        13.87801104068153   -0.30565178273866    9.34708192193525
H        12.48778174087638    0.73397023375598    9.66552009484193
H        14.01110885151571    1.43403737676729    9.11684611518091
C        12.02594490520752   -0.87792058697997    7.51446437732126
H        11.72253870954251   -1.12365365100624    6.49917530267747
H        11.12712048842320   -0.75196102855001    8.12264986121606
H        12.58880656711769   -1.72107817332220    7.91316829347619
C        14.07947258115485    0.25363731744946    6.63661556425258
H        14.77765669242923    1.07732814142812    6.76441183545909
H        13.77666899087757    0.20441492602825    5.59246108601286
H        14.60971444191719   -0.66894231936732    6.87214353188619
N         9.11031853966802    0.69598437599653    6.94128330373741
N        10.47595922748555    2.63427487297618    9.57247414910316
N        10.93891073581904    3.25086021716646   10.39447798037006
P         7.92565395426438    1.42711729541038    9.40662524152157
P        11.68048641019384    1.78983469662355    7.13703783877291
Co        9.85244213048378    1.75549145271748    8.36545439752666

