71
CSD_code = LEYMEK | q = 0 | S = 0 | Stoichiometry = C23H44CoNP2 | MND = 4
C         4.27263709665973    0.27359626159182   18.33698956374839
H         4.13529835092776    1.01522534987275   17.54366847204795
H         3.86536931360932   -0.67784682885600   17.99110525167627
C         3.56753590768329    0.77910659261629   19.55582729405908
C         2.26742875446914    0.38986124028303   19.81822248744843
H         1.78862404212294   -0.33393552219986   19.17501247960547
C         1.58538105759574    0.93461476984678   20.89637887542002
H         0.57857539411835    0.63047586128967   21.13532594660890
C         2.23592160164930    1.91657365595124   21.62892729550241
H         1.73189521461519    2.41948797568588   22.44133085970865
C         3.53638572750137    2.26490628325452   21.31473624465631
C         4.20066845463341    3.40162136661157   22.02616038238589
H         3.78153149257302    3.56355435562351   23.02051074974942
H         4.03097378368644    4.30519414807274   21.43193659038218
C         6.33498094534571   -1.55737546698596   19.26818748323000
C         5.30783773895116   -1.79411127384263   20.37947528374055
H         4.29188521512687   -1.84683488620057   19.99457201138648
H         5.36286955024609   -0.98138251602407   21.10556694378398
H         5.52088194500800   -2.72787224006053   20.89912106721209
C         7.72617498062733   -1.66961714661577   19.89247346634152
H         7.86783745420434   -0.86205744882132   20.60915237255564
H         8.51021633049100   -1.60289467143434   19.14451949664372
H         7.83140650028420   -2.62230063443712   20.41092764153218
C         6.16030891777298   -2.60047819579435   18.16951218018131
H         6.15015200654700   -3.59554895706977   18.61501313728936
H         6.98298864181104   -2.56494220282529   17.45972716158662
H         5.22458669771160   -2.46651515425594   17.63028871854517
C         6.87269073979742    0.62146171665870   17.08441601966435
C         8.36898950584500    0.33060059147414   17.17598746695234
H         8.56740807023777   -0.73785459757490   17.13521419338153
H         8.76403609073642    0.73131650244046   18.10782920101158
H         8.89612933946142    0.80017345152417   16.34567991414876
C         6.27192104318517   -0.07717944076230   15.86663294829136
H         6.73191291633329    0.32660619952086   14.96424143996028
H         5.19919973814729    0.08610923368922   15.79266727712787
H         6.45673491873015   -1.14668790225172   15.88263019870300
C         6.68507047851496    2.13737110725641   16.95464944580435
H         7.27965629547409    2.53102522728980   16.13138659481044
H         7.00534224536697    2.62137636962294   17.88068236330980
H         5.64398355741466    2.39922208051662   16.77176785104639
C         6.30351040008386    2.28481053914603   23.69961706899872
C         7.73240262374891    1.74259701510869   23.74507558591355
H         7.85230453296803    1.06867738423260   24.59298586909890
H         8.46367402522970    2.53907293129506   23.84152294673179
H         7.94147944312459    1.19311924658427   22.82860580880955
C         5.35254197407064    1.08443648529407   23.72859116238544
H         5.47929848137167    0.50345377465047   22.81271553360339
H         4.31075042381435    1.38784419110758   23.80644895616165
H         5.58108113712853    0.43817576481115   24.57566628351896
C         6.04324514827297    3.18917990872686   24.89966852771060
H         5.07712849488074    3.68546046393986   24.83220468772959
H         6.81904757799472    3.94457418079436   24.99660904246734
H         6.04863273703466    2.59052481514291   25.81091326867200
C         6.74934232380053    4.79102655622147   21.87487197925312
C         6.55300197962834    5.13812491331989   20.39481133927523
H         5.50394487720583    5.31066520177801   20.15845828047354
H         6.91355579677999    4.31032738317352   19.77918978669892
H         7.10874457378016    6.03713042781596   20.13137227702085
C         8.24875141906611    4.71423970143762   22.15436237547064
H         8.74582147787416    5.61673224656351   21.79935417484556
H         8.67554355363557    3.85730246919942   21.63609873791396
H         8.44715314171908    4.62150872550181   23.21954941449162
C         6.10453802505272    5.86550011323563   22.74748986142896
H         6.28439058285091    5.68840577199675   23.80335296733264
H         5.03068722868880    5.92954891773961   22.58731967055612
H         6.53607900791262    6.83419036908394   22.49374933936418
N         4.24237875013120    1.65685322957593   20.33390831980429
P         6.07333323826740    0.24439033216605   18.75468890331742
P         6.01614320290740    3.05379306777466   21.99565632276419
Co        6.14037638302829    1.71514229604288   20.31953465480331
H         7.59538938273169    1.67784632186447   20.37685248214668

