83
CSD_code = LEYNOV | q = 0 | S = 0 | Stoichiometry = C31H48CoNP2 | MND = 4
C         3.52101154659244    7.53331483286722   10.08519547826962
H         3.26852025674768    8.59344243929925   10.03509590312929
H         3.75661820196484    7.19062676075924    9.07262548125841
C         2.37716158728806    6.70475066077151   10.57899415273622
C         1.07624223506586    7.14418243384341   10.41359936808091
H         0.89397766051427    8.12406325408982    9.99789534388035
C         0.01831821262502    6.32325180322636   10.77348485763058
H        -1.00412176953595    6.65209457287034   10.67550187269723
C         0.32439257743686    5.04724483938132   11.22156292464381
H        -0.46141750222005    4.34414264764525   11.45474306640270
C         1.64593312358681    4.66523082296287   11.36447329402994
C         1.98808072004160    3.25665205177877   11.73463944523666
H         2.15709655621832    2.70746391132651   10.80285773448914
H         1.17848317170303    2.76601098608320   12.27689319532530
C         6.41769709539379    7.30762489351289    9.93831573275198
C         7.72906975164247    7.39646577481015   10.71630026221258
H         7.73621563565243    6.65829448813115   11.51661432108780
H         7.87133627705050    8.38729754163872   11.14084159140020
H         8.56987103521385    7.19583602927034   10.05278810761462
C         6.31563242646220    8.46490622519438    8.94576229825515
H         7.18516892773874    8.44330903121114    8.28866586165606
H         6.30166619679186    9.42782214007284    9.44654389502248
H         5.42921331737502    8.38856915263636    8.32034289263019
C         6.39708261363765    5.97524715908051    9.18156279316952
H         7.23661501878153    5.91298408539343    8.49068151517787
H         5.47907173311276    5.85392718938560    8.60749594147612
H         6.46911409601017    5.15243181350129    9.89387132860653
C         4.95269487134393    8.53161553975679   12.41778598492723
C         5.17899803696495    9.93567118712654   11.86668640661705
H         4.97770049449190   10.66619711279187   12.65042527992795
H         4.51854366193191   10.15545464292581   11.02993469978836
H         6.20910468430044   10.07073433947539   11.54709840845720
C         3.56194976731561    8.43793208090612   13.05311953897144
H         3.37224201854456    7.40879268815181   13.36276577058655
H         2.77570804113710    8.74516703755912   12.36705767716705
H         3.50606393988108    9.07288767355134   13.93641965151859
C         5.98231450732593    8.21711726416888   13.50380043777017
H         6.99755468296572    8.38427984993455   13.15885744008197
H         5.89619372712680    7.17442579992516   13.80663443133287
H         5.81296237610110    8.85041707120756   14.37401319090358
C         4.38777049604259    1.66497013856340   12.14458594738812
C         5.54497109260503    1.34954375055147   13.09028355999647
H         5.18493781783922    0.98376304108710   14.04882906129033
H         6.14888926186866    2.24147656671743   13.24854087908992
H         6.17976557380200    0.57716708619731   12.65699947704996
C         4.96860306059974    1.95614800948237   10.75684837292641
H         5.51674619192586    1.09318507764207   10.38158385821105
H         5.65319726888434    2.80268002190011   10.82120527217410
H         4.18694200976911    2.19836772738914   10.03735414074375
C         3.43556544403081    0.47247537662065   12.06368252983011
H         2.64082965449507    0.63392649828544   11.33906461396114
H         2.98450522825998    0.24821475768212   13.02520304129175
H         3.99740612233698   -0.40607414765315   11.74612514150527
C         3.05931289076928    3.32113397027216   14.44192189843574
C         4.28758326444118    3.59225433606293   15.31138394578592
H         3.97912284947289    3.85004770707888   16.32418406698333
H         4.85836479117516    4.42137565817853   14.89540147994505
H         4.94093971738714    2.72749142338042   15.36729620391796
C         2.13256549481680    4.53573455570288   14.55399087800092
H         1.18361061944121    4.37581735153942   14.04675304219136
H         2.61995650989697    5.40808283550707   14.11513063656809
H         1.92288803497379    4.75590619951755   15.60008317851701
C         2.33462324662957    2.06976203421191   14.92715717147222
H         1.92667624359313    2.25317943733271   15.92139153171977
H         3.01485063712845    1.22512065492085   15.00064941529751
H         1.50726890610321    1.80045931727787   14.27321860465125
C         6.03506675745355    4.88136694877630   12.64148998578057
C         7.13481732395676    4.65460875841348   13.11327488919558
C         8.40776788969792    4.38631878226318   13.66404075547770
C         9.52741904726754    4.25354878913576   12.83711706859025
H         9.40907959422647    4.36259041798142   11.76770765609273
C        10.76775997903870    3.98550895053863   13.37950668453423
H        11.62759582746090    3.88673293164733   12.73102605377322
C        10.91788521533496    3.84553168225228   14.75051138612812
H        11.89082430224595    3.63571643577423   15.17170971617512
C         9.81350342863848    3.97551498813934   15.57842983028335
H         9.92672211764956    3.86361672541428   16.64819018723444
C         8.56887962122356    4.24244472914712   15.04547250551615
H         7.70610547330350    4.34140949424283   15.68962219047273
N         2.67821956801559    5.50417894378268   11.12273478563366
P         4.98063750163110    7.13156144953854   11.14861789152697
P         3.60489709571519    3.31151263585119   12.63195819653233
Co        4.38474531653075    5.17224812344678   11.84727469118956

