88
CSD_code = LEYQIP | q = 0 | S = 0 | Stoichiometry = C36H40BIN6S3Zn | MND = 4
Zn       10.13501982684395    6.57028654099141   17.40161907723769
I         8.04311299678864    6.12286553102492   18.75399077208642
S        10.35323289193108    5.36059593573150   15.20435454151864
S        10.53166336361714    8.95309084055636   16.68993668648060
S        12.34677771355215    6.01557655750424   18.46682335120929
B        13.21095647523548    7.25214809686728   15.38506288546945
H        14.18967138693927    7.47158127587353   14.73813390506575
N        11.98387746317886    7.44653483076349   14.47290630624568
N        13.18392172212341    8.24957126740777   16.56040486173081
N        10.07891468308138    7.30469245410809   13.40156906869408
N        12.66327938474721    9.72106969109585   18.09718740380148
N        13.29519222641107    5.80081145247438   15.89777443793773
N        13.27153654657839    3.94560149551672   17.06228985519601
C        10.84244604547877    6.74791634943079   14.36231637232306
C        11.91509961074152    8.47751065878474   13.57113238297186
H        12.71176767748078    9.18640515010601   13.48378957443030
C        10.74107249440287    8.39516457604033   12.90574262058756
H        10.32137151994556    9.00631161545651   12.13363646280714
C        12.17427524157171    8.94491800481098   17.10900512242512
C        14.32461289683081    8.58686046021494   17.24278927806677
H        15.26670564583037    8.14607371962626   16.99179322608740
C        14.00969271290985    9.49506528734917   18.19332067108058
H        14.61588133132735    9.99914516853756   18.91725741588276
C        12.97872015321882    5.26145083675671   17.08625215105621
C        13.77532248887947    4.78692195452312   15.10912611584338
H        14.08386577445657    4.97243298127617   14.10156990042352
C        13.76283973244134    3.63859138152842   15.82234423230310
H        14.06142072467223    2.64361452766076   15.56451566349491
C         8.81236799411315    6.81740904703711   12.97769977313955
C         8.77680177985172    5.78475120791259   12.04222359822752
C         7.54062241515956    5.30819081288371   11.63527187882968
H         7.50000011384640    4.50542085540065   10.91329842986349
C         6.36117794406714    5.83370011753519   12.14301257293882
C         6.43183693260235    6.85944690170674   13.07509322810169
H         5.51951622857858    7.26827576651627   13.48405600570210
C         7.64700839111822    7.36734768264603   13.50933384369483
C        11.89921014074959   10.62368873031633   18.88559122311558
C        11.57045076473331   11.86823383707535   18.35107510059871
C        10.82144528641362   12.73828836315772   19.12738337211557
H        10.55667044576461   13.70524096743938   18.72461163419912
C        10.39951953325979   12.39011783393684   20.40283134341816
C        10.74245145986330   11.14252574814888   20.90430627963835
H        10.41131408956051   10.85809026602434   21.89231110820651
C        11.49146898987200   10.24158664153087   20.16281816140703
C        13.10195197733464    3.04674684520351   18.15011795943712
C        11.98904130376510    2.20785170036693   18.17750002331816
C        11.84848657052104    1.34643681470512   19.25531389927814
H        10.98661594051079    0.69657726813462   19.29499017933399
C        12.77847332464965    1.31067894311838   20.28400492145184
C        13.87536370582218    2.15950629216509   20.22507837085593
H        14.60388757871402    2.14276410057941   21.02277059004792
C        14.05478290589034    3.03680366468569   19.16773115286004
C        10.05015231607634    5.19746072785625   11.51429614465922
H        10.70828795567967    5.97352603151646   11.12294867184817
H         9.84259246287413    4.48248537998852   10.72298741874271
H        10.57796974736003    4.68074434020708   12.31652026554556
C         5.03054274292063    5.29481543258443   11.71737087674914
H         4.61373261046339    4.67436337505853   12.51045718751297
H         5.12249710540013    4.68795344616296   10.82031429734817
H         4.33021985180423    6.10547005779657   11.52688348172157
C         7.69587401859462    8.44485256147083   14.54522480778364
H         6.74253910694812    8.96219924358336   14.60822868536743
H         8.48175855484081    9.17071163765524   14.34468858709058
H         7.90025798543244    8.00745520378884   15.52442977609696
C        12.00460671247457   12.23974434079336   16.96624404494593
H        13.07262196133406   12.06896843525268   16.82994748532449
H        11.78787265762641   13.28519846704106   16.76492053068825
H        11.46986281779438   11.63017437629270   16.23717126471500
C         9.56423958708394   13.33170858870839   21.21378851385746
H         9.74802731538094   13.19677293033179   22.27690410148699
H         8.50780575727715   13.13705863942964   21.02806671348880
H         9.76942577204747   14.36522535380043   20.94523042080812
C        11.83757782246784    8.89271885028610   20.70897968067235
H        11.39777908325488    8.10669327758086   20.09427474503737
H        11.45995140778821    8.77946452604247   21.72103471890865
H        12.91504805981802    8.73081684161137   20.71518183152306
C        10.96900145207657    2.24728408065772   17.08406010199935
H        10.51566686281864    3.23664498543467   17.01734535061966
H        10.17845401338118    1.52610167506396   17.27014520357522
H        11.41821217221332    2.03370800180028   16.11455306709718
C        12.59057112126107    0.39341832800137   21.45247999569985
H        13.54850516811024    0.03944365032001   21.82676334422882
H        11.97638537648453   -0.46155849102581   21.18152295746508
H        12.08968101351950    0.92680166001403   22.26056632379341
C        15.22927985950995    3.96548575032540   19.11962288957804
H        15.73517483950116    3.91004197446927   18.15558537640793
H        15.94094584204588    3.72288893166596   19.90396741103025
H        14.89256231835592    4.99236833820183   19.26532473435129

