58
CSD_code = LEYRAL | q = 1 | S = 0 | Stoichiometry = C30H23AuN2PS(1+) | MND = 2
Au       14.02946460002684    3.18626383609699   12.94135591179516
P        13.40780558387029    3.76970953196757   10.85312059771243
S        15.03892385754546    1.92697689099009   17.27590038253991
C        11.86399894505205    2.97373601754639   10.34209932312980
N        14.84562397268149    2.87895585891843   14.89746662099842
C        13.10260628720978    5.54067110256715   10.62273077499267
C        14.01486139718994    6.41776787685479   11.20419490593996
H        14.83841343481348    6.01656697706923   11.78247447105807
C        14.61128497617066    3.35991072607071    9.56518736287429
C        14.29411088194398    2.02321517749563   15.71001401213019
C        15.54417116903306    2.36046062693715    9.82249197406250
H        15.54151819354661    1.86862583920614   10.78814815482714
C        12.79673712062198    8.27292510737452   10.30394679109011
H        12.67598389570042    9.33774972377595   10.17779801193838
C        13.86364375790971    7.78104177676097   11.04061837138812
H        14.57247375621625    8.46113634873300   11.48787847290654
C        15.90756827286920    3.52705961146302   15.45120791676874
C        12.03220895052574    6.03472095849233    9.88475515691125
H        11.31933327954441    5.35492282261526    9.43895770019055
C        10.77136764027933    3.13876361678665   11.19260570739532
H        10.88560369548039    3.73457365406960   12.09018165743165
C        16.70424015471939    4.49062619081928   14.83398544774040
H        16.49321961979602    4.77889984788091   13.81601711017476
N        12.68784745348650    1.39002718935070   14.10121530059414
C        14.60498392703517    4.01301086617224    8.33517919685308
H        13.88265360031567    4.79461570763187    8.14277333887249
C        12.58794375661760    0.28210414011409   16.21438203845493
H        12.98920791131532    0.15625321185874   17.20810659380824
C        11.74577948561371    2.19787239672521    9.19558747996062
H        12.59675843208495    2.05891075327009    8.54379462852495
C        17.22811564638491    3.69954242003140   17.49396424381831
H        17.42714893215965    3.39423196804287   18.50821033836679
C        11.88415655767479    7.40212127108965    9.73079376794828
H        11.05387040286686    7.78819338164794    9.15875200966410
C        16.18082236643265    3.13979589772657   16.77869538976210
C        16.45169551252190    2.65438673129755    7.62367552208839
H        17.17035686691123    2.38144175614243    6.86641321799963
C        13.15557852773101    1.20674131822882   15.33823182140120
C        11.50645202759531   -0.46422780893491   15.77750378521091
H        11.04525584472436   -1.18832881967965   16.43132165629959
C        11.03059255112794   -0.26889164380103   14.48934104788585
H        10.19254532618924   -0.83207337367902   14.11260008029343
C        16.46118991121703    2.00734215239007    8.84935250089170
H        17.18522083402598    1.23148772266784    9.04714964611881
C        11.66093244108773    0.67433791166548   13.68859015133795
H        11.33030239989883    0.87014877714317   12.67740594824565
C         9.56088214000852    2.55029182144122   10.88206572556128
H         8.71189216780697    2.68464613792813   11.53523278175601
C        17.74348896973263    5.04237219602659   15.54821881986474
H        18.37043482101005    5.78896972473575   15.08672672940483
C        15.52697995504019    3.65569809348804    7.36877317175908
H        15.52519559274140    4.15943236271462    6.41413234476417
C        18.00261609864674    4.65256172300592   16.86418189899173
H        18.82447161653865    5.10309873748125   17.39766275450025
C         9.44079171598167    1.78345753983876    9.73161961915104
H         8.49506642308248    1.32398193873946    9.48856499466945
C        10.53006839630374    1.60642809580122    8.89483799509082
H        10.43403794552488    1.00733758120551    8.00220662397970

