80
CSD_code = LEYSUE | q = 1 | S = 0 | Stoichiometry = C30H42N3NiO4(1+) | MND = 6
Ni        7.14430028526239   21.88196136776713    4.08097757604111
O         7.14891986540481   19.84574309741676    3.35516887110904
O         5.42851596742529   22.20292835533267    3.38891899887127
O         4.59323120835061   20.15319383259251    3.23263702607934
O         7.69982013532962   23.09987277303165    2.17689719384648
N         6.52520743941793   20.80571996695513    6.08861715483455
N         8.81516212682480   21.63864631958824    4.79996893033461
N         6.68120665364973   23.43073112130887    5.43874432221490
C         6.08149240935052   19.41142161087116    5.96139489819810
C         7.17195245355059   18.54869101404530    5.37839798828074
C         7.71374879207989   17.52665855755659    6.13612695898261
C         8.71903613499666   16.70822739319156    5.63823948137954
C         9.13007684614255   16.92554249866564    4.33142164876093
C         8.60855181424560   17.92894815915878    3.52291586274098
C         7.64231556667827   18.77720428254533    4.08062245207647
C         9.31054020508395   15.62247152008137    6.52232362054916
C         9.92598438108410   16.27980882448270    7.76669527499316
C         8.19594570280427   14.65402467754413    6.94139085759448
C        10.40483299605614   14.81557989552047    5.81951677436279
C         9.03931454769077   18.07030114405915    2.06752303392938
C         9.99685684816223   16.96128595319671    1.62032993653831
C         7.79742930913740   17.99986906687112    1.16618653162025
C         9.75119356024918   19.41390047710638    1.87547980997285
C         7.76873400067395   20.87796337989500    6.86055371012102
C         8.96773595248250   20.98377840680465    5.95782615835915
C        10.20746733822822   20.49634398156057    6.35147060526143
C        11.31542867238355   20.72446905557010    5.55549320500255
C        11.15569240250496   21.46713438298480    4.39591652269470
C         9.88606141534494   21.89585186488105    4.05366732652681
C         5.49051997125837   21.66861429052110    6.63999865354714
C         5.79954671952336   23.12652564449364    6.39239933187021
C         5.16534387285270   24.11674621332190    7.13539907201893
C         5.44956456507393   25.44532489818984    6.87589731086970
C         6.37608148827812   25.74851067586103    5.88832815771283
C         6.96698428590067   24.70718577688224    5.19625001527264
C         4.49615628688555   21.38014985259820    3.13070659715683
C         3.19557501699024   22.00590438324942    2.66164633329556
C         7.66477267178553   22.52583905843225    0.87201346942406
H        10.65916001566245   19.44826862553413    2.47510457252943
H        10.02206632582877   19.54428222152293    0.83018080185939
H         7.33008766059272   17.36700487910591    7.13276019063818
H         9.10209338345602   20.23028527601933    2.17596596414326
H         9.88005674038815   16.27908758214106    3.91746290199086
H         5.79023761580041   19.01275166118277    6.94497358438086
H         5.20279198964118   19.38658148045778    5.31087240819601
H        10.29308341927430   19.94825855061918    7.27596893249403
H        12.28412623496100   20.34492309602381    5.84027198950066
H        11.99340163806623   21.70216899695349    3.76013801101689
H         9.72148704201077   22.47288946285936    3.15340701852504
H         4.45645924662541   23.84143308966403    7.90065108791561
H         4.96295769886035   26.22904926114080    7.43533542751092
H         6.63437145748226   26.76957286585053    5.66036608984774
H         7.70446160230032   24.89555351842901    4.42721000839776
H        10.70847945970819   16.97826383088868    7.47527933660925
H         9.17909795137534   16.81758172911542    8.34466803222229
H        10.36574622588954   15.52061695880075    8.40839961651867
H         7.42491970124857   15.15550292320580    7.51938154040874
H         7.73116650053856   14.21353687658865    6.06245262242369
H         8.60853788715965   13.85351837355024    7.55029589108529
H        10.01212509941179   14.29933417952612    4.94722232242206
H        11.23352185784064   15.45233692017219    5.51808418553601
H        10.79297184010294   14.06428276254856    6.50313775830292
H        10.23731150030576   17.10353394701153    0.56919519503451
H        10.93029918724227   16.98819043331938    2.17782286455033
H         9.54011715016387   15.98081756631794    1.72697499058404
H         8.09901628665260   18.00122037770854    0.12148552460151
H         7.13825374445786   18.84601575322928    1.33051068257937
H         7.24320966341193   17.08497634460850    1.36165976261253
H         7.76129088449204   21.78260257150232    7.48017037316869
H         7.87560249548980   20.01572868328432    7.52948173394159
H         4.54576200328240   21.43631486242449    6.13680724208652
H         5.34137018032945   21.50065362143734    7.71823603561641
H         2.36050421966279   21.49651070588822    3.13448961738402
H         3.11280063688818   21.86002937519860    1.58642782343234
H         3.17565310030418   23.06811599018128    2.88664647796983
H         8.53305182300816   21.87787946249819    0.77538116152294
H         7.71871448646982   23.31199166974323    0.11493131345229
H         6.75930276976547   21.93459795013163    0.72000367359663
H         6.95188022890741   23.71124107928833    2.22990982989331
H         6.13045113579586   19.80152071018987    3.33431373105698

