74
CSD_code = LEYSAK | q = 0 | S = 0 | Stoichiometry = C33H30CrO8P2 | MND = 6
Cr       10.00374159064447    2.93921597965174    5.73898827081049
P        10.15464675973693    4.91512870834906    7.02956024175203
P        11.61550810015567    4.37048498318068    4.75745557291768
O        12.19414173118457    1.74314398549748    7.42087056000747
O         7.83654500430391    4.19069504290485    4.06354604011626
O         8.02890742267759    1.27308809640694    7.25240346420122
O        10.08336791695450    0.49386141700764    4.01301021714885
O        11.12069092015457    7.22033052184017    8.53571900302849
O         7.75122809935890    4.64288816061319    7.83759899396263
O        13.90990433181678    6.14319376661545    4.39180191101599
O        11.15787262992321    3.36397554517572    2.45393875243500
C        11.74125297581074    5.48074478440979    6.24333098565557
H        12.57157494349674    5.12486384616168    6.86512764328561
H        11.85527484307820    6.54801430561057    6.06305862308975
C        11.36434585232388    2.23134290176196    6.77697624701910
C         8.67262945908579    3.71531101952215    4.70620197976666
C         8.77780616530492    1.96343192504794    6.69505540420680
C        10.08345343124316    1.46960986353292    4.64246687254806
C        10.48561712138534    5.00072592410552    8.81785241279500
C        10.93822679424769    6.18910418268224    9.40405639008885
C        11.17084048350001    6.23031376817683   10.77145239744439
H        11.51722293915984    7.13408859251313   11.24909840166096
C        10.95784822186438    5.09424724639017   11.53829945560782
H        11.14214262118715    5.13849829223970   12.60168274065024
C        10.51592328830371    3.91756756578423   10.96063144189615
H        10.35596639733666    3.04064007395912   11.56882576230207
C        10.27906238798158    3.87481863248658    9.59691276960177
H         9.92618633261585    2.97245160474074    9.11469728295099
C        11.46754172596372    8.48269356058645    9.04780803692680
H        10.72440429097629    8.84138722343917    9.76671320708710
H        11.48950244172470    9.15702155164652    8.19291792139433
H        12.45486763767352    8.46749388699257    9.52158852993176
C         8.98169153785494    6.28888541518039    6.82860146509264
C         7.71962156289736    5.88471035562060    7.29219711849464
C         6.62075433590777    6.71683707381737    7.16857802447318
H         5.64568706093543    6.41499758334346    7.51830999775447
C         6.78784774747739    7.95967802675099    6.57363593867659
H         5.93491364498570    8.61439571974422    6.47280777593610
C         8.02602428300299    8.36369211805076    6.10948333399655
H         8.13772170184010    9.33288563543854    5.64634945513825
C         9.12472046847934    7.52654454762729    6.23090379475343
H        10.08662956666875    7.85083457293073    5.86831520162521
C         6.54620772980142    4.05932601551706    8.27876869521112
H         6.11771895590180    4.62463054830411    9.11290248411249
H         6.80211851906269    3.05572772477885    8.61117846010018
H         5.81940320745967    3.99350179549964    7.46404199133748
C        13.33376930023588    3.88935454986114    4.39488098285921
C        14.33094079629186    4.85928349014806    4.23398436680093
C        15.62939350104023    4.46244561303440    3.94717813447482
H        16.41661925997632    5.18931238834991    3.81759526995157
C        15.92385900704049    3.11242858254424    3.82625232088660
H        16.93820173374673    2.81588789558381    3.60301858344118
C        14.94137613991777    2.15220770470400    3.98808229360835
H        15.18428369813325    1.10510230536141    3.89321056129164
C        13.64449294537513    2.54537759324899    4.27260642563150
H        12.85162803554952    1.81983148218196    4.39987040431057
C        14.82107502566514    7.18740087126760    4.15605058471960
H        15.64746031456146    7.17018586282928    4.87453298812208
H        14.25730581861000    8.11094596800587    4.27966086378638
H        15.22228261494148    7.14713573602403    3.13858457997675
C        11.27395311920517    5.46904360148773    3.34820532204906
C        11.00292854625710    4.68955745227018    2.21242365418235
C        10.62984493765478    5.28411635575642    1.01935850960815
H        10.41342607157941    4.69465931630980    0.14198100503645
C        10.53077634247700    6.66729454519935    0.96418286234637
H        10.24071416693928    7.13824047932003    0.03662052741741
C        10.79922704446548    7.44293832562059    2.07688357940358
H        10.72018689844011    8.51828733311049    2.01585863362448
C        11.16645476572110    6.84473994268830    3.27261013733176
H        11.38332942964488    7.45832092287941    4.13227604167065
C        10.85466617656675    2.44340394696220    1.42999760724706
H         9.81637098349816    2.54736568289633    1.10208403425488
H        10.99576081409209    1.45532466701585    1.86225931258194
H        11.52746732885732    2.57008329375254    0.57552914342349

