79
CSD_code = LEYTEP | q = 0 | S = 0 | Stoichiometry = C31H41N3NiO3 | MND = 6
Ni        4.80754722032725    2.22791474802632    9.76165223773276
O         6.26232064126118    2.16478185854888    8.67453351193389
O         6.13636260593006    2.24346844251898   11.42986211433983
O         5.47281590064104    4.25239931336671   10.83729651634859
N         3.65931766860017    3.07901825724574    8.13985779960567
N         4.53484825669853    0.06455834490896    9.08855695220454
N         3.39581347500302    2.11591596308638   10.96435799883011
C         4.48080196063056    4.22989422519008    7.71753498000072
C         5.82197802055388    3.90550652750217    7.11606201510025
C         6.24484090580878    4.64700842464428    6.02868799045407
C         7.51924283484249    4.51343987714580    5.50099705518452
C         8.37587410589246    3.63042686747497    6.14809043198482
C         8.01072775597455    2.87541483606515    7.24735777820325
C         6.67574905359990    2.96588811533100    7.73719448561604
C         7.92578277957131    5.33290831363926    4.28532934786349
C         6.97903330116030    5.01049223201305    3.12005099913551
C         9.35681014530976    5.04204564731719    3.82512858577107
C         7.83065657425117    6.82614276872126    4.62926470468052
C         9.00182806240932    1.93496003127188    7.92317028252110
C        10.41510714853927    2.02444369462198    7.33537279566090
C         9.09366532899449    2.28034141407154    9.41520531780909
C         8.50840293348788    0.49313460433955    7.75568083011188
C         3.44415891884723    2.18440983427516    6.99848512528385
C         2.95819990677527    0.77965357997312    7.39291966313489
C         4.08001156745595   -0.11133209447182    7.84667772220457
C         4.60223379666252   -1.08347653320984    7.00086390020533
C         5.60523632974592   -1.91641490054084    7.46408818041798
C         6.06540478849128   -1.73969566695988    8.75900773442385
C         5.51085825170799   -0.72819821770387    9.52486956996932
C         2.37312080269003    3.58509011490512    8.62868528298389
C         2.43982942189519    4.15291661314719   10.05091864298887
C         2.46327896125625    3.06676826688594   11.08061805438540
C         1.54460413135456    3.06098074505854   12.12498618997457
C         1.58828083828416    2.05803582782652   13.07526512868877
C         2.55585807415157    1.07387343527787   12.94183379091996
C         3.43237501291028    1.14329663734376   11.87633758156233
C         6.17336250805064    3.49827476307841   11.53831615476803
C         7.10994905486803    4.08836185917307   12.58016896347044
H         8.43297211986461    0.23621071487887    6.69977286791050
H         9.19405591160866   -0.20227293940259    8.23640965858857
H         7.53015584747052    0.39333637959369    8.21211742439483
H         5.54934790287778    5.35210355198050    5.59388782288627
H         9.38026831211747    3.53273403181221    5.77955815833757
H         4.22018522232753   -1.18722978937719    5.99631732726467
H         6.01979218915909   -2.68479132467702    6.82837550308557
H         6.84663818230229   -2.36359252250385    9.16271673804258
H         5.87167813366122   -0.53389606683148   10.52676758940031
H         0.80906438505949    3.84827049352370   12.18947566709115
H         0.88847445471397    2.04429805423676   13.89709941037388
H         2.63512262085164    0.26847072278166   13.65433162088278
H         4.20535069291083    0.39932600420147   11.75261751623051
H         3.90805141681757    4.82672184900049    6.98879663114463
H         4.66606810994968    4.84860800062147    8.60278400802585
H         5.94930632569953    5.24913620564361    3.37155073633185
H         7.25611103835408    5.58397979138683    2.23726287607452
H         7.03330104267893    3.95145020235704    2.87603918014082
H         9.58457574436609    5.64042773747251    2.94449880826168
H        10.07544072078399    5.29801788534133    4.59984620556973
H         9.47612504990689    3.99393458032253    3.56052787004671
H         8.13942751328389    7.43171257663659    3.77892429840642
H         6.81484542190947    7.10443656990665    4.89597355367874
H         8.47768011743397    7.05651661231861    5.47278339372477
H        10.43419730233279    1.71585157259086    6.29217536533214
H        10.81299117750225    3.03328141459203    7.41898188815760
H        11.07222186699803    1.35746684460425    7.89103107476945
H         9.81439657463526    1.63009168195670    9.90834425073593
H         9.41413099827279    3.31343799436385    9.53897382406463
H         8.12918446800805    2.15270647575704    9.89609433024872
H         2.71069826959077    2.63799603922236    6.31225563319757
H         4.39330026242231    2.09111791599740    6.46404847000152
H         2.22939749203796    0.85253391612148    8.20224813454133
H         2.47007323872552    0.32994874292664    6.52658529265410
H         2.00742579377069    4.37150229962900    7.94867150302780
H         1.63998376994415    2.77370641333761    8.61703557307268
H         3.35655342101002    4.73678852682983   10.17305196332527
H         1.58287362340199    4.80606670273279   10.22097941188812
H         7.07956679752766    3.48853067024015   13.48552702193347
H         6.83157637543592    5.11645475646226   12.79135533888152
H         8.12160104761870    4.06315994030692   12.18141964177669

