54
CSD_code = LEYWOE | q = 0 | S = 0 | Stoichiometry = C29H17ClN3O3Re | MND = 6
C         3.10737103947647    5.71336284226614   -1.88106439211434
C         2.71440268885473    8.09333184970975   -0.53515185098035
C         1.44926591369642    5.65548052468321    0.40865751425242
C         3.86193375972437    7.86077619334033    2.81925355589483
C         2.91201299104362    8.91954800231637    2.94395383167118
C         1.66580038815806    8.87543546467265    2.30961342471984
H         1.41199515128362    8.01204868957909    1.71127011693884
C         0.77221720651188    9.90779365963792    2.45718483899614
H        -0.18545312109214    9.87128600490812    1.96147772332586
C         1.10792562060306   10.99618651621365    3.25702039473659
H         0.40890465382542   11.81063844574031    3.37696821258785
C         2.31890029689709   11.03856990572655    3.90802178272351
H         2.52792445024472   11.88996723415681    4.53521408912120
C         3.26067897309903   10.00709772831620    3.77861840343615
C         4.53892924610178   10.02830843603437    4.47050568731638
C         4.94025793232384   11.13141120721692    5.23689110134367
H         4.30044593785763   11.99527350236228    5.31014608801888
C         6.14474368150085   11.16031710833206    5.89934440143775
H         6.41994289202985   12.02917831568789    6.47830831461357
C         7.01330802487449   10.07767634833226    5.81619851136454
H         7.96441679117839   10.10165316364264    6.32648081516953
C         6.66061138972681    8.97913864369134    5.07122428618884
H         7.34902596062963    8.15383402093284    4.99443767140401
C         5.43389072916398    8.92710858504254    4.39495963490204
C         5.03284169602746    7.83094308382742    3.57723244075526
C         4.87570218785139    6.01920192551623    2.34272093628783
C         5.05166332896458    4.71929025498768    1.72836217222069
C         5.92461566087073    3.73161725903868    2.18517621547468
H         6.54712398316613    3.90858484238085    3.04595383324088
C         5.98042623018048    2.52196156611301    1.52104972636958
H         6.66022715063838    1.75191167386867    1.85213855879671
C         5.14729351815424    2.31704126343717    0.43079775993786
H         5.16024180995410    1.38960555990832   -0.11799797033807
C         4.28853822961282    3.33360671044648    0.05422925374160
H         3.61433482605847    3.20477253377092   -0.78293687848528
C         6.93583022649473    6.19682991257179    3.67450223161524
C         7.97911197592226    6.27793685278958    2.76077427751259
H         7.79137700603888    6.67978302538764    1.77603060433657
C         9.23701409574759    5.83540026517477    3.13035897213316
H        10.05249824906113    5.89818050397455    2.42656303927427
C         9.44818633799531    5.31536285136368    4.39710129561511
H        10.43106302285667    4.97171704348774    4.68138664010276
C         8.40167942534378    5.23348832919838    5.30233577478129
H         8.56698568541276    4.82644202430844    6.28831216570298
C         7.13863012397772    5.67180311127319    4.94594482703509
H         6.31378264960493    5.61698891342352    5.64151181517813
N         3.80406886660771    6.74687496408090    2.04396206776190
N         4.23504507964676    4.50626917541604    0.67450344698454
N         5.64844207194659    6.63630161452112    3.27893783617724
O         3.12577195094925    5.35866748851133   -2.96999534700842
O         2.55745433812856    9.18707207591250   -0.83008737590331
O         0.40176271384549    5.26609927326966    0.68232699795634
Cl        5.50126411953572    6.96503851944762   -0.37599802057470
Re        3.23227084159345    6.28158499009301   -0.02643145371153

