98
CSD_code = LEYXEV | q = 0 | S = 0 | Stoichiometry = C55H34ClN4O3Re | MND = 6
C         6.19067061057551    4.37810534187304   -1.04618748348725
C         7.51591575845402    2.52799775355175    0.52508153231276
C         4.63755745504301    2.35908214601108    0.18196533645854
C         6.32032844293345    2.61869363877926    3.87192580212654
C         6.83276197882051    1.28675492049446    3.82574415793224
C         6.63628194144911    0.45547996476227    2.71774433295471
H         6.08141987122862    0.83302467615080    1.87066094433005
C         7.12816293802153   -0.82669982856066    2.71283666860700
H         6.97792704123990   -1.46203330289507    1.85373169229741
C         7.81266614706123   -1.30286783154817    3.82717116445513
H         8.19936907687094   -2.31129374967936    3.82981205941497
C         7.99086280174933   -0.50374507173182    4.93244127338011
H         8.50734612540380   -0.92054798237882    5.78190242598384
C         7.51043404395992    0.81341080276088    4.97368527073285
C         7.68148001926117    1.66836670178291    6.13683065752294
C         8.42710677107802    1.25400521260634    7.24924106994225
H         8.89895360272489    0.28526453933207    7.24851047338857
C         8.59516491012471    2.05475078598083    8.35432770178925
H         9.17834960169292    1.70111213526388    9.19149760053215
C         8.02654225740891    3.32304737095517    8.39050424101499
H         8.16763470813025    3.95948485362857    9.25111374938802
C         7.29204812139069    3.76895509834445    7.31912267540145
H         6.87483489291860    4.76189042096723    7.34566541657284
C         7.09971743384260    2.96362954538289    6.18820928386950
C         6.37769735238931    3.38776815349739    5.03483180389829
C         5.30644089512853    4.47394435676839    3.45392662938296
C         4.51388407619118    5.41056666229769    2.68400797631695
C         3.77356340112813    6.46267298589943    3.22382227818898
H         3.77305823739323    6.64194464280825    4.28563640249514
C         3.03703592012418    7.27102821848973    2.38051727262129
H         2.47049256874230    8.09834238501893    2.77972482475095
C         3.03684608708709    6.99637963694038    1.02060967725834
H         2.47881314688161    7.60314935981619    0.32633899957501
C         3.77117503358356    5.91730426847680    0.56353591980421
H         3.78172752186979    5.66278179595929   -0.48863784079455
C         5.59364324523543    5.71708420728668    5.55266523765195
C         4.71955376683595    5.74864582515239    6.63604540269888
H         4.14033295367785    4.87011611937528    6.88191165990388
C         4.60701818285881    6.90028951178535    7.38536970879659
H         3.93169968147344    6.93664724202316    8.22708535340310
C         5.36000250703766    8.03420944492074    7.05641530808467
C         6.23333801279982    7.98671531688880    5.96342648600451
H         6.81707059979039    8.85895154967031    5.71137426845349
C         6.35029390023092    6.83503538169325    5.21497609710527
H         7.01566634455532    6.78649149864073    4.36545347488955
C         5.23208761147400    9.21130906875118    7.81297976425855
C         5.11399164608552   10.22910756725653    8.45942235236821
C         4.97162210984624   11.40949652618643    9.20016456145279
C         4.28143990981189   11.38525051233943   10.43247903340996
C         3.73811675304700   10.18853593919430   10.95555157273899
H         3.86347300424483    9.27936847735597   10.38544268960577
C         3.07696046479194   10.17846493707181   12.14807998238636
H         2.66773198820465    9.25740172863387   12.53702349732390
C         2.92248240429348   11.36709313903368   12.88408537019602
H         2.39683285616510   11.34229964975828   13.82730402183522
C         3.43382592701429   12.53893653717892   12.40980180991658
H         3.32245626663782   13.45765544567736   12.96691201487367
C         4.12625895787518   12.58718148220925   11.17774551952670
C         4.66080629487567   13.79735425935461   10.67890663961898
C         5.35704457337514   13.81834210717786    9.44859920294019
C         5.90517499848941   15.01499758215262    8.93149464710991
H         5.77925600834639   15.92161794998900    9.50511147313033
C         6.57493733596969   15.02610730035624    7.74364668711118
H         6.99013477701452   15.94600416354406    7.35905540204471
C         6.73123293492218   13.83737984675614    7.00817963267790
H         7.26420222242197   13.86118827672164    6.06894461153487
C         6.21455339623424   12.66552399442524    7.47636752168371
H         6.32970481049713   11.74865008914424    6.91678838143068
C         5.51520349597036   12.61583045437295    8.70488809324832
C         4.49564013878082   14.98176702434494   11.40544097805572
C         4.34568062412813   16.00863113859224   12.03272325750739
C         4.16961757629130   17.19541730822016   12.75778717756271
C         3.51365722102844   17.19183896810355   13.99333716597975
H         3.13820267637664   16.25926204329882   14.38985673262382
C         3.33654657420541   18.35477025050944   14.70374950092885
H         2.81304745650136   18.30729933279751   15.64464390983052
C         3.80672880354046   19.58621238850898   14.21515893418175
C         4.46600875308696   19.58079288408483   12.97357432109610
H         4.85922747619818   20.49628723224631   12.56273287746322
C         4.64172573892050   18.41648311503032   12.26502194120354
H         5.15525274060635   18.43999092527133   11.31446516288331
C         3.13528495889292   20.71474970748821   16.27426535950156
H         3.29361610678246   21.68590845097329   16.73770172304419
H         2.06402564395953   20.48586976094464   16.31190511823731
H         3.67267737037853   19.96919738518914   16.86507496224306
C         3.94118415234149   22.02241431538785   14.33237919481791
H         3.50592983768217   22.81458083926525   14.93753064392374
H         5.02285943063274   22.18943444712021   14.27208286048329
H         3.51957135202816   22.09806478402871   13.32758550103211
N         5.68251568642521    3.32399393999506    2.90191271882732
N         4.49502512331009    5.14112129336876    1.36131321645727
N         5.70263013013880    4.55329815886193    4.75372815272910
N         3.62817520736145   20.74392178271811   14.91989043043704
O         6.34583790732646    4.88200888018692   -2.06329418898328
O         8.50960498527055    1.96433054750996    0.46737203598795
O         3.84297148218728    1.59234170453758   -0.14252199392082
Cl        7.43710964241208    5.33792991395985    1.60789106771986
Re        5.94922446928107    3.67004773787051    0.74764176827271

