35
CSD_code = LEZBIB | q = 0 | S = 0 | Stoichiometry = C12H18ClNO2Ru | MND = 9
Ru        3.42423586532061    1.98096185996492   -2.86748944496705
Cl        3.70305512455081    3.31825237681566   -0.97870707292240
O         2.83952777694743    0.39080618712679   -1.68164418034491
O         3.46034653303529   -1.46561251255970   -0.66075149706644
N         5.32749188322564    1.18379795250244   -2.25053572487241
C         5.19005386902736    0.09362518052473   -1.25278978614691
C         3.70096474689373   -0.39722975601816   -1.18129232576550
C         5.58012375503721    0.58584638017517    0.13602077944783
C         1.49559844093715    2.71978068170525   -3.74676483368687
C         2.44502710802180    3.75224302691401   -3.93830787171259
C         3.66446428976938    3.44805851961177   -4.58447503894872
C         3.92647478212928    2.13065797704402   -5.04736211434060
C         2.93545148886777    1.12825780178528   -4.90457793408512
C         1.72271468029429    1.40959097206340   -4.24034615959530
C         2.17133667119011    5.14003297215484   -3.45071321772847
C         5.17794674049361    1.84804382402231   -5.82944047489847
C         0.70035009500588    0.33789778464717   -4.03910821980997
H         5.82514335481802    1.96326892716224   -1.80565297340601
H         5.87740548255470    0.86532134454579   -3.04914629069849
H         5.80857603704735   -0.76433878964455   -1.53911500078704
H         6.63551297648942    0.85379137671985    0.17528079038110
H         5.38784446820551   -0.19908312407945    0.86218576085939
H         4.97676873723868    1.45555540883019    0.39488339812137
H         0.54251755947187    2.95422984587712   -3.28420186590589
H         4.37438098641720    4.24175370136083   -4.79234864839000
H         3.09428464708075    0.14895025378293   -5.34057340345180
H         1.10316328881290    5.34275319778584   -3.42635135213369
H         2.66807547246330    5.87899512567949   -4.07571062340232
H         2.55908592130122    5.24037288693496   -2.43353893565856
H         5.45006147905325    0.79545879792943   -5.77386993232152
H         6.01014525732845    2.45433074029422   -5.47529825476610
H         5.00819118839479    2.09380946654209   -6.87898334453426
H         0.75863036417749   -0.41442310324077   -4.82272748091865
H        -0.30454685302864    0.75257540048575   -4.00570199899814
H         0.89749578142890   -0.15133268544572   -3.08134472654782

