29
CSD_code = LEZBAW | q = 0 | S = 0 | Stoichiometry = C14H8Br2I2N2Pd | MND = 4
I         6.09668618598989   -0.04951913293650    3.30969607356586
I         2.46132708759419    3.70002652611902    3.66593345414789
Pd        4.28028268572575    1.82545201795773    3.48827560382927
Br        3.77304853436612    2.43236077692337   -5.54198398800622
Br        4.56151071666326    1.44350999030659   12.54091599211864
N         4.13338635204890    2.00472641488438    0.43025000360677
N         4.39352511136200    1.67624548977775    6.54938093542634
C         4.19330770642904    1.93059123310870    1.59239936152040
C         4.35552441371363    1.72714426612210    5.38505639273249
C         4.95091697005629    1.38765163614647   -1.71200365341055
H         5.70244359606599    0.76550021644764   -1.25017632768038
C         4.43214422237174    1.62333260013728    7.90206643800591
C         3.88736581289753    2.29681585660860   -3.65077865341935
C         4.86494945340490    1.48965237459896   -3.08528621131722
H         5.55185224869802    0.94643735298360   -3.71501646976399
C         4.05249007213260    2.10071173451129   -0.91817929576702
C         2.99147111932030    3.00686163591364   -2.86323955250331
H         2.23888450886001    3.62841766656144   -3.32234021354291
C         4.50853172184811    1.51705527627489   10.64358524889151
C         3.81222358487321    2.54489753558816   10.02257133389032
H         3.30747391676735    3.29327836541609   10.61302569182691
C         3.07144877529240    2.91177995453734   -1.48914764159693
H         2.38624731888695    3.45566125332312   -0.85674343223013
C         5.16699589952322    0.54184403668619    9.90714612018453
H         5.70200326450598   -0.24896141205048   10.40902087661748
C         5.13206515017488    0.59221891913691    8.52877057441452
H         5.63773761145433   -0.15454998743720    7.93565991655181
C         3.77031871182377    2.60142657275069    8.64466238406936
H         3.23373724707689    3.39053082964117    8.14007903783646

