29
CSD_code = LEZBEA | q = 0 | S = 0 | Stoichiometry = C14H8I4N2Pd | MND = 4
I         6.09337425580997   -0.15067279309453    3.46211060165506
I         3.75939488620413    2.43470019534003   -5.60653072677967
I         2.63221086677575    3.76118349227721    3.80294968385061
I         4.64334840639892    1.46976192630042   12.90102627370479
Pd        4.36780355869013    1.80868807808583    3.63174609390487
N         4.49149982657692    1.66819452820277    6.69281498994716
N         4.20630775121160    1.98356721742669    0.57417248675012
C         4.27312530905153    1.90501246663607    1.73562363222051
C         4.59404545941634    1.53802828265931   10.79160041552204
C         4.45203825647910    1.72398255057969    5.52876719658952
C         3.07011613896751    2.82079325016589   -1.33374237839217
H         2.35125396223446    3.31047655093262   -0.69429673940581
C         4.52747150740417    1.62528791669571    8.04614721805831
C         5.14763924380794    0.55155273239829    8.68363715649221
H         5.59696089237391   -0.23698620107879    8.09912623077063
C         3.91208515179433    2.28077660068428   -3.50667139687798
C         4.94837860066883    1.54576377479268   -2.95094025951746
H         5.67258300745340    1.05583289857682   -3.58268172782908
C         3.94132533278760    2.65616264121886    8.77999168837641
H         3.46538884600041    3.47941926317790    8.26894555112240
C         5.05216036763855    1.44051777484651   -1.57849442548890
H         5.85091153108500    0.87145590772905   -1.12742852883322
C         4.11058516788789    2.08040106548616   -0.77349204197107
C         2.97425027836288    2.91673431913754   -2.70725282877462
H         2.17200265713750    3.48569459214385   -3.15028706418614
C         3.97888275035112    2.60774118764214   10.15887319240414
H         3.52941088481118    3.40077266500953   10.73565377239135
C         5.17704323208906    0.51215857137995   10.06310448851955
H         5.65260187054258   -0.31520145536710   10.56602744578118

