69
CSD_code = LEZDUQ | q = 0 | S = 0 | Stoichiometry = C31H29AgClN2O4P | MND = 4
Ag        5.32514040647740    3.11924514106674    3.13813283048087
Cl        3.95452276595399    5.21566627963321    2.27387172919990
O         5.36228631535686    5.45355005249769    2.16936885688687
O         3.64215590677366    4.04111830359520    1.51638281095778
O         3.23062877065949    6.31702422077929    1.79304459026728
O         3.64811029128296    4.95404537125838    3.64371617049243
N         5.85866856509476    2.11018949331747    1.05449810900833
C         6.39680729304890    3.17206275273709    0.43868947414036
C         5.88750277217270    3.66369235045163   -0.76023446749830
C         4.80492635867521    3.02877538241651   -1.34169371516831
C         4.27837146944360    1.90633161529115   -0.72469669640118
C         4.83851940964674    1.49355304392816    0.47195025929513
N         7.62506890715296    3.61105993886115    2.44096265234785
C         7.53585917891555    3.81072327073444    1.12216117505090
C         8.47625884870071    4.57706956224832    0.43506494020415
C         9.49871739568489    5.18384088307332    1.14152393808710
C         9.56906035335667    4.99173041025521    2.51155314642281
C         8.61247910609907    4.18531930643898    3.10756760747039
P         5.11975331492839    1.75747959656531    5.22925888721828
C         4.41956148937229    2.73585699055797    6.60101997832682
C         4.96190964875774    4.00067352783395    6.87190650635437
C         6.13478367677674    4.51502140810592    6.10135895427806
C         4.38829452408774    4.76840151815886    7.87509405181040
C         3.30050096373816    4.31046396959016    8.59814799857800
C         2.76909424087380    3.06201244293827    8.32734368316967
C         3.32462729280352    2.28114761149337    7.33047507273301
C         4.01954457237641    0.30046104936871    5.17996677551590
C         2.80274195552617    0.39765829689115    4.48829324018150
C         2.38687819652784    1.67568733302796    3.83713547280909
C         1.98415543108291   -0.72243715968910    4.42400094977007
C         2.34808624591628   -1.91563963470163    5.02388576636555
C         3.54915425885520   -2.00572172797443    5.70569050395153
C         4.38042273891131   -0.90295015005108    5.77999285047837
C         6.63684966467962    1.05887492475367    5.97037766384426
C         7.51483732558788    0.32763102644167    5.15781354494871
C         7.18444772023816    0.05815273921416    3.72660431760696
C         8.68985425471328   -0.15756827425608    5.71504226041314
C         9.00195950579341    0.06607706611522    7.04509933910842
C         8.12967705278677    0.78303981199417    7.84517449573450
C         6.95544576174513    1.27819230630538    7.30775877142269
H         6.29975463240698    4.55462120406019   -1.20586300659741
H         4.37668880603715    3.40811698148825   -2.25752438966220
H         3.44087915294929    1.37643810096737   -1.14959283361501
H         4.46733838583286    0.61546225109851    0.98879840821107
H         8.41488500620335    4.69087856327783   -0.63538697566920
H        10.22961831250623    5.79351804934088    0.63062835933597
H        10.34592700917818    5.45090884175187    3.10210087688973
H         8.64598076181875    3.97889232995467    4.16986652730832
H         6.94845631454937    3.78762720762635    6.10490685322977
H         6.49520030717832    5.45015100192821    6.52362553526829
H         5.83720163574920    4.70231922591165    5.06095195480849
H         4.79679103743767    5.74562592835082    8.08926176981657
H         2.86810000555601    4.92856006686201    9.37095256739610
H         1.92137912576428    2.69623791511123    8.88756505138844
H         2.90534667642621    1.30766783537096    7.11885298968479
H         3.05364168416695    1.91831774838353    2.99792840133272
H         2.42993022655814    2.51016450103066    4.53942390996687
H         1.37362630847204    1.60351685227905    3.44887522601045
H         1.04375552324195   -0.65715363940709    3.89533079487852
H         1.69376621863962   -2.77247528032240    4.96085779880308
H         3.83886524320304   -2.93102140226956    6.18102734160485
H         5.31645336203557   -0.97410929470914    6.31495778685520
H         7.97951981553929   -0.50493969439715    3.24462297563101
H         7.03581404006028    0.99755961274463    3.18525207457524
H         6.25910358058873   -0.51343272176784    3.65384942134525
H         9.37200240040613   -0.72247759574062    5.09562460354419
H         9.92217006700555   -0.32181489742802    7.45619335484341
H         8.36051567152015    0.95644141058489    8.88570182305271
H         6.27422473833647    1.83608684666462    7.93450630389382

