78
CSD_code = LEZDEA | q = 0 | S = 0 | Stoichiometry = C28H41AgClN2O4P | MND = 4
Ag        4.43953857032252   13.50640066392643    4.80360827687674
Cl        5.54669748544350   11.47940669147622    6.67112532537284
O         4.14012273155827   11.70518399959147    6.47892846331833
O         5.95851643265797   10.38800593032557    5.86731418004834
O         5.79021312947930   11.23955435631782    8.03848867914062
O         6.24668085150350   12.66007712590841    6.25907228744179
N         5.85980821095601   12.49276654756869    3.23230541130973
C         5.49086783689314   11.21213542767657    3.13387405916621
C         6.36283534904334   10.23870135178788    2.64869297265754
C         7.65851493682341   10.59595398543819    2.32582037963885
C         8.04417151487177   11.91859129692036    2.47284503505496
C         7.09963323483123   12.82959444228801    2.91575769795628
N         3.24166868642063   11.88629284122517    3.60736581945356
C         4.12872056866629   10.88298155935858    3.59039541082527
C         3.80960893795443    9.60581352416495    4.04548417020769
C         2.53881024282381    9.36557201556536    4.53448446554688
C         1.61639172544601   10.39911066890981    4.53227871376294
C         2.01919308338730   11.63586180345236    4.06009366431353
P         3.44837802917223   15.59828029146046    5.72612512771729
C         4.22118540492918   17.23631659128293    5.25070379733357
C         5.66039891734945   16.97955832248794    4.79438042858876
C         6.27266953107456   18.25034764696294    4.21220032831178
C         6.22645829270922   19.38072830282278    5.23668385036597
C         4.79193672547965   19.62723995777533    5.69339416798461
C         4.19330199701902   18.35455919188950    6.29233107855131
C         3.44967179460983   15.53768559339098    7.58581237358196
C         4.89579422630663   15.31791035190823    8.04167260367347
C         4.98144533516327   15.09038912560101    9.54762182761043
C         4.13361623706900   13.88865873481867    9.94552899856209
C         2.68479857587771   14.13386970860660    9.54177124159694
C         2.57557395449468   14.36378041179298    8.03626662147152
C         1.65279966255088   15.80964241553410    5.26437342838576
C         1.51192445346037   15.73547757291824    3.74302382271504
C         0.03688226111531   15.67804773496557    3.35463202150222
C        -0.70034109612821   16.89973410776780    3.89741242951878
C        -0.54118952374928   16.99279935772384    5.41225475985909
C         0.93737621695776   17.04864940517557    5.79653810970521
H         6.03366148347275    9.21972706929736    2.52955166926807
H         8.35718143063948    9.85335883438416    1.96936793379437
H         9.05020506987572   12.23720770157786    2.25054444133069
H         7.34558681540823   13.87787794263746    3.02412871307084
H         4.56306105156513    8.83751169333117    4.07853280920155
H         2.27718936549158    8.39147822549779    4.92010891394981
H         0.61402402756146   10.25480207160884    4.90388225640133
H         1.32709804188366   12.46850433682451    4.02273612638356
H         3.65127186568074   17.56896901039402    4.37264142388122
H         6.26077225749119   16.63822116574606    5.64016892726957
H         5.66223852754033   16.17740122353094    4.04526063537623
H         5.71463068361826   18.54735716612336    3.32068423688416
H         7.30526427151743   18.06215686676688    3.91288286482800
H         6.83916267883015   19.11175426504169    6.09976036114233
H         6.64089106720606   20.29336034575591    4.80392711091407
H         4.18972063404353   19.94860613054027    4.83996733858938
H         4.77049472602917   20.42704434643011    6.43656138467590
H         4.78232059649991   18.07059390248764    7.16457906646677
H         3.17336263531775   18.55239626223639    6.62390173855971
H         3.06250603438970   16.47540270288322    8.00488823947260
H         5.30285200805639   14.44227891733791    7.52755202294570
H         5.51553297556163   16.17532949844098    7.77035672715768
H         4.62789311466348   15.98150911016334   10.07666235272066
H         6.02227770309936   14.92145147728473    9.82805295498367
H         4.51213952358961   12.99633578289757    9.44312016107900
H         4.19904307330419   13.72249818105565   11.02280636991667
H         2.30198128238593   15.01080082153558   10.07399215562620
H         2.06845181047162   13.27723664837448    9.82018084882824
H         2.89949749539435   13.45781930670019    7.51218436798988
H         1.52918518812095   14.55206748357821    7.78366036279531
H         1.16702003870568   14.91644750486936    5.67956931298826
H         1.96459478559970   16.61595373450129    3.28140175130255
H         2.04498175294687   14.85321203612403    3.37056915337960
H        -0.41381704515000   14.77211196187823    3.76621704936812
H        -0.06081073901443   15.63627470549788    2.26817093068348
H        -0.29367698678463   17.80215693563579    3.43517737647518
H        -1.75930736739011   16.84124309526973    3.63885896979061
H        -1.00466321995562   16.12107786570980    5.87968401813500
H        -1.05252913799579   17.88279371969584    5.78507052450753
H         1.37939731775198   17.94680366559866    5.36193696637983
H         1.03013863803167   17.10828722790321    6.88253740226166

