81
CSD_code = LEZFIG | q = 0 | S = 0 | Stoichiometry = C39H33AgClN2O4P | MND = 4
Ag       -1.49894733619909    1.95279716365850    3.48510392723882
Cl       -0.55734921642881    4.62204604142394    2.81677839534956
O         0.23385123654316    3.43757874135339    2.63410962007841
O        -1.49221441628199    4.36053503406587    3.87295992721556
O        -1.27457657648378    4.89144306447332    1.62278698783137
O         0.27458180760679    5.69924015818717    3.16832527455410
N        -3.41101919586709    2.52483358041775    2.12297526592947
C        -2.99361609989027    2.87079633656476    0.92210239896228
C        -3.76118702497023    3.70494614214616    0.07846280877477
C        -4.94205425129229    4.21642319793206    0.53502750083210
C        -5.39186378854423    3.88437738082302    1.82948982815452
C        -6.58911388461585    4.36771327215079    2.39233218069928
C        -6.96868405450234    3.98160959611843    3.64829454547043
C        -6.17377714692329    3.09308785420631    4.39197321020584
C        -5.00435828859333    2.61090367876883    3.87593905398247
C        -4.57858996649301    3.00405444257308    2.59094451390013
N        -1.22971458337170    1.31207428256326    1.21264933537054
C        -1.68054372294706    2.33970731087108    0.51684842016168
C        -0.92825343585806    2.94441239801163   -0.51282041624110
C         0.31344574224961    2.45834964055321   -0.80716088703782
C         0.80837548114618    1.34259231325882   -0.10225987140289
C         2.07062520066624    0.76669910055094   -0.34268978765228
C         2.48936235275815   -0.31413434120081    0.38330242379815
C         1.66483927427618   -0.86526795192399    1.37706403123974
C         0.43791578183395   -0.32341342214020    1.64068889913540
C        -0.01708689792015    0.79805835147095    0.91653520524824
P        -1.47911364505209    0.49426035359815    5.51774516218882
C        -3.04983365291547   -0.36043598961346    5.89918353968290
C        -3.78665109027382   -0.96204103889989    4.86676329835759
C        -3.25529422698017   -1.03935803446651    3.47286649091164
C        -5.02462438271104   -1.51513285320787    5.16729844336276
C        -5.53570067463311   -1.48817102546323    6.45277864128030
C        -4.80134323839728   -0.90538971423142    7.47064527151827
C        -3.57004985378056   -0.34229226254450    7.19152549656841
C        -1.00497022128913    1.19025307676405    7.14278606435450
C        -1.57675238302811    2.39917636635032    7.56636617617384
C        -2.63092101287423    3.08061012593192    6.75815807331622
C        -1.15825911159470    2.94386698654099    8.77348909551663
C        -0.20268499480551    2.31897542853682    9.55509339615806
C         0.34752457021887    1.11889276453994    9.13995830654831
C        -0.05014536011186    0.56145415832237    7.93886873822056
C        -0.29317648120082   -0.88382644320818    5.35200984783256
C         1.02896707399928   -0.59394944749122    4.97895173302805
C         1.48662556014908    0.81350104098897    4.77980114332963
C         1.91771305630981   -1.64863935935993    4.81729187861136
C         1.52178264349463   -2.96135252494512    5.00763592344695
C         0.21735837579184   -3.24099108338376    5.37600654637402
C        -0.68327080721473   -2.20569340831576    5.54795646552117
H        -3.41559956229874    3.93423299959311   -0.91558481599404
H        -5.53990573210991    4.87243486802594   -0.08218712939134
H        -7.19837538455241    5.04751148116930    1.81408429126547
H        -7.88597088277618    4.35639603719341    4.07770836337881
H        -6.49701273540381    2.79428096196665    5.37834364760926
H        -4.37332177861200    1.92321405245693    4.42547824741017
H        -1.30713686290359    3.82088136816095   -1.00957399451715
H         0.92761732583292    2.92276032598115   -1.56574275015400
H         2.69963838297818    1.19597696206907   -1.10933878861725
H         3.45850591714434   -0.75255444007458    0.19573115085821
H         2.00749190654954   -1.72295562437850    1.93691942078491
H        -0.21001708062346   -0.73600434285682    2.40250386728447
H        -2.95534559998313   -0.04657320507792    3.11146518512489
H        -4.00396448791945   -1.44509813955580    2.79735226941017
H        -2.37560930010830   -1.68220054230790    3.43881966270762
H        -5.59840593764495   -1.97642967471842    4.37622259950693
H        -6.50185967985719   -1.92392860480968    6.65908968952922
H        -5.18518104190199   -0.88602505473622    8.47968872480574
H        -3.00099948692828    0.11306545629788    7.98913429013552
H        -3.46188537734621    2.40061435965656    6.56789669426515
H        -2.23048829198621    3.41620072092546    5.79643270381626
H        -3.01311944104522    3.95343201952681    7.28181204289201
H        -1.58957217202315    3.87771425533182    9.10426639025118
H         0.10837034662531    2.76565131900758   10.48772343391872
H         1.08659226488218    0.61713507003832    9.74665420900344
H         0.38330544373675   -0.37547175210438    7.61943571110136
H         2.53281919303305    0.84207980790753    4.48529395248357
H         1.37024401359702    1.38919770119026    5.69916468865777
H         0.90157145117961    1.31500894791735    3.99617624022770
H         2.94027261338959   -1.43455076100391    4.54051816256016
H         2.23173370191126   -3.76427908295679    4.87430593914121
H        -0.09856472023417   -4.26132884635831    5.53447110120982
H        -1.69805413750526   -2.42386912672941    5.84919227516113

