57
CSD_code = LEZNIP | q = 1 | S = 0 | Stoichiometry = C27H24BrN4Zn(1+) | MND = 5
Br        8.70756570147048    2.11018537550255    8.25636691462394
Zn       10.54767609362887    2.43590214166742    6.92222985663058
C         8.66730264479072    2.60684646117913    0.62440312827433
H         9.13957556966241    2.92401434657371   -0.29247569041443
N         9.83996994283438    1.77287485535930    5.06265973266423
C        13.21084731940351    1.37483963049710    7.38380773301911
C        14.73502621173788   -0.22546833535760    8.51939128015808
H        14.07467869330472   -0.20956269409204    9.37424892526958
C        13.11429439442341    2.46813761109662    8.36777252339979
C        15.86515925118549   -1.02236050338681    8.52492829320070
H        16.09211917265949   -1.62005702283514    9.39391709571499
N        11.94800100933865    3.12058622007090    8.40822497076104
N        12.21076252398984    1.19399938797019    6.60993692476240
C        13.95719434524612    3.76997313545569   10.19036932448852
H        14.74830655570770    4.03025567077594   10.87637941029267
C        14.15656832229971    2.78489003886964    9.23475051424620
H        15.09989233439274    2.26741951001789    9.16429879967732
C        12.72456954856737    4.39857313074211   10.25761367245978
H        12.51778857167916    5.14888672219239   11.00308881573373
C        11.74980124779402    4.04210936793056    9.33584049589251
H        10.76798322494543    4.49645657303975    9.35821543236428
C        16.70427016249484   -1.04956528596333    7.42223826057478
H        17.58952289983240   -1.66572547941913    7.43346584790158
C        14.42674390948698    0.53812748400017    7.39428615394180
C        12.15136699185822    0.09965021081945    5.67647735651553
H        12.84217641003063   -0.69996377474682    5.96923392796315
H        12.45941117853812    0.47233145684383    4.69314911925726
C        10.72174041831969   -0.44041588303053    5.58800148962125
H        10.75186129723055   -1.46022740146991    5.20401721469994
H        10.29279225033863   -0.47429622388888    6.59235668013192
C         9.35401744969047    2.68709836105723    4.31678402337822
C         9.47500774954334    4.07668699568594    4.78545229625940
N        10.22625307983983    4.28276117012296    5.87546336896925
C        16.40568550555763   -0.28639352088902    6.30531224217186
H        17.05836875264162   -0.30364941907140    5.44637799747765
C        15.26590874923833    0.49694658251017    6.28330853601999
H        15.03606030959520    1.09847637981518    5.41603673181934
C         9.82036167341734    0.38776770542165    4.67530530310753
H        10.13124841366759    0.28849240727255    3.62708291137923
H         8.79824309060895    0.00110522882104    4.75048086557501
C        10.37829730891984    5.52046247858582    6.32072080690349
H        11.00934448081173    5.64148749769278    7.19016713280583
C         9.77943064509714    6.61889401822566    5.72252157190076
H         9.93394759375567    7.60657713771319    6.12521673050748
C         8.82652093481012    5.12150214830710    4.13182429925113
H         8.20914085299272    4.91808452315847    3.27138334516554
C         8.97742536264590    6.41218625098753    4.61160769907518
H         8.47955075343393    7.23754642927610    4.12709374332677
C         9.28583201790981    2.85795124394755    1.83598338175171
H        10.23976862414674    3.36509846139110    1.86705572683874
C         6.83796340227776    1.55581683875994    1.76903201024709
H         5.88014845475589    1.06009103904509    1.74525970114270
C         7.44346995744463    1.95826089098520    0.58953079396064
H         6.96042117383431    1.77007477378200   -0.35641417936299
C         8.68695235438302    2.44024598585053    3.02213788205671
C         7.45855855895342    1.78546574106104    2.98361181385014
H         6.98010455284208    1.48734592406065    3.90476906059039

