63
CSD_code = LEZNOW | q = 0 | S = 0 | Stoichiometry = C24H24N10NiO4 | MND = 6
Ni       -1.81627345385112   -2.91553927467497    8.63299868950371
O        -3.93283403084211   -2.25999996636430   12.80407011217351
O         0.11197759055014   -2.94586299426925    4.32091615957312
O        -7.35943171042350   -0.45032189006245   10.46791749070464
O         1.85825901924450    1.09096547754923    5.38569134670938
N         0.61414156364851    0.06200843869298    6.98061231428743
N         0.97113885556795   -0.92279703807063    4.88289922619465
N        -2.49160231443231   -2.74833253957698   10.30868717174680
N        -5.59465954430625   -1.21876853746215    9.26573152369009
N        -0.16297794658935   -3.91513125854913    9.73011106645613
N        -2.59711217683499   -4.93910042995686    8.20822504674497
C         1.56723463664846   -4.80158752050748   11.70751844071525
H         2.24633669232220   -5.14995554705928   12.47190111461252
N        -5.63325564048492   -1.35680628948441   11.60533619844885
N        -1.13864308731675   -3.09542054155607    6.95961435510581
C        -3.77694023719872   -7.00537633737634    8.26710065022064
H        -4.38152418687920   -7.69891384785793    8.82905838690003
N        -3.72187554535116   -2.06217097537435    8.10939592019126
N        -0.68243880260397   -1.09715627476733    8.57180114751424
C        -4.37456092717549   -1.96451191344938   11.70087582543824
C        -3.71940323109589   -2.18250586978237   10.44354840436394
C        -2.63794781522378   -6.35589790084615    6.27385864145207
H        -2.33608649532187   -6.52291531629823    5.25193642774083
C         0.36273789390910   -4.22450794349233   12.04942211349398
H         0.07010860052153   -4.10474566870986   13.08064010376342
C        -0.49474270970342   -3.78295108314171   11.03194426296800
C        -1.76462671674741   -3.17550845957447   11.30065228404126
C         1.59034684265612   -0.81965718086131    3.57212025649604
H         1.22189006500234    0.06811011953783    3.05884808347970
H         1.32989286398145   -1.71713043549611    3.01633276701541
H         2.67157792682482   -0.73773080048822    3.67967812041544
C        -0.15104427481880   -1.00838888440763    7.39500908830304
C        -6.25847861425084   -0.82735696812010    8.03681900952347
H        -7.21260553802400   -0.38275672549022    8.31481825979072
H        -6.43752454968822   -1.69848555392053    7.40370147615621
H        -5.66125532078914   -0.09043239380405    7.49676337979407
C        -1.43310052220969   -4.17864982922714    6.30025212522287
C         0.84659670851775    1.17389187952256    7.88269141733545
H         1.46412202540535    1.89537255225223    7.35030574158509
H         1.37470690721750    0.83776696568199    8.77714822019397
H        -0.09789429411312    1.64458825562724    8.16214337756514
C        -0.36503416395723   -2.08761310958083    6.47932316907421
C         0.21898562950501   -2.06954578838285    5.16930231730597
C        -3.34187059548406   -5.82353110097621    8.84678760573746
H        -3.60375806787511   -5.58244666436019    9.86936298600654
C        -2.23890582561854   -5.18277502088388    6.92948175937694
C         1.19061763232960    0.13667082332230    5.72363280200830
C        -3.41337872778190   -7.27218735832522    6.95195503636358
H        -3.73419583872075   -8.18424031788621    6.47028099203263
C         1.89608141123417   -4.92824603285889   10.36260229642371
H         2.82835456852848   -5.37548200331234   10.05731533514581
C        -4.35013159598699   -1.81266967667581    9.21249720799065
C         0.99462933922483   -4.46755959980671    9.41524639772490
H         1.21516111397557   -4.55139676282659    8.35847431835885
C        -6.36173038881287   -1.09371387707924   12.83503989752718
H        -6.55567646523833   -0.02553844174356   12.92786650501314
H        -5.74593806451186   -1.44238741952022   13.66061641890253
H        -7.31469135862371   -1.62209881562229   12.82009718057922
C        -6.26572764843082   -0.97412184426637   10.45165081613514
H        -2.11006156564995   -3.08065390146483   12.32378926169744
H        -1.07483378338895   -4.32902298392937    5.28829068060884
H        -0.52030252293076   -0.31885161182942    9.19903691199008
H        -4.18712158753137   -1.78631799076856    7.25335435636481

