42
CSD_code = LEZNIQ | q = 0 | S = 0 | Stoichiometry = C14H15N7NiO3S2 | MND = 6
Ni        0.75289578262823    0.27102535964875    9.20130771128412
S         2.40528933326301    3.97636630038750   10.93965356515828
S        -2.12319105770247    2.21267857805837    6.67660574585752
O        -4.05631564288032   -3.96934497977676   10.05370098907819
O        -0.65337142044649   -1.04334030513854   10.59449472390192
O         2.14685771819417   -1.25093636713829    9.92581792309840
N        -0.11821602593049   -0.96062332285343    7.93344183059314
N        -1.25896294728201   -3.27852479549287    6.46603182833362
N         1.86765096040059    0.73013768813815    7.25963187944738
N        -0.59206363530740    1.51869332316910    8.86732641979577
N         1.60100974903527    1.42594277189143   10.29229900929831
C         1.00098661558966    0.34482907406881    6.30489023956929
N        -2.39948223452548   -2.44475961431173   10.31444059656913
C        -1.32037416079617   -1.72532620189760    9.83120959406541
C        -2.78263134443026   -2.21838061226972   11.69906985059691
H        -3.83622271813625   -2.46242521650400   11.81009002415012
H        -2.59537985036889   -1.17361493795702   11.93837872291937
H        -2.19038311001349   -2.84935179378677   12.36256040660771
N        -2.65183890286535   -3.61527969653831    8.30398737946724
C        -3.34836156484760   -4.65443908631133    7.56724019928249
H        -3.73153819275952   -4.26556225251978    6.62371187390229
H        -4.18577987856196   -4.97097305162255    8.18834399879926
H        -2.70077024859073   -5.51670547148109    7.39330174105154
C         0.02880419246736   -0.65486083737294    6.68717782276553
C        -1.04155326411179   -1.86212360643460    8.41292579746372
C         2.78079723661198    2.32425438911219    5.74086257441293
H         3.49546555707595    3.11182255316325    5.56370514123222
C        -1.64294577359074   -2.90192169382970    7.71678074814987
C        -3.11251906055561   -3.36669799432004    9.59999417795961
C         1.86450356933501    2.55868354250899   10.51274099246659
C         2.72510219361070    1.69649423592590    6.97759287476540
H         3.39634691292174    1.98374286105227    7.77597593325746
C         1.00022902086151    0.90974553476536    5.02810741227349
H         0.28164300174599    0.58237512173108    4.29265872467418
C         1.90190662083590    1.91877542408931    4.74679109745390
H         1.91409197830606    2.38723621402616    3.77415413358983
C        -1.22362267840453    1.81374537763343    7.91645354042620
H        -0.62561013366350   -1.03019482807332    5.90350748035545
H        -1.55902599353987   -4.18072450481162    6.13502470319555
H        -0.33386350508125   -2.99670940136555    6.17965612721861
H         1.70830568597933   -1.34386735973890   10.78314250602592
H         2.94903721553604   -0.73846041781672   10.08221195947020

