35
CSD_code = LEZPUE | q = 0 | S = 0 | Stoichiometry = C12H13CdI2N5O2 | MND = 5
O         4.75193671089925    4.60912012730055    0.17358324163115
C         4.59646977489532    4.94953276539501    1.34253110911376
C         3.42532857938625    4.60345704107920    2.11569394304161
N         4.49852123022877    5.41669666821859    4.07571015468745
N         5.55959462833400    5.68904699182791    1.99860824722843
C         5.53922599479549    5.98536434443705    3.33755737298211
C         6.72818233546479    6.14195289498169    1.26025940828529
H         6.60997961267026    5.83092902742754    0.22512075017103
H         6.80299577551545    7.22645002638412    1.32833545678492
H         7.62786849205780    5.69974370998985    1.68706671298562
O         6.38198316626933    6.67115568197127    3.86197972222484
N         2.56715213860485    4.12535862942285    4.31312285450949
H         2.83969272293588    3.96936973697563    5.27156134774689
H         2.06614739030492    3.35135054137457    3.89708255248915
C         3.47746888535634    4.72020535676457    3.50339755869830
C         4.57151223966244    5.56969448947133    5.51749219593169
H         5.39127818631066    6.25711811269041    5.72190488835488
H         3.64332286595988    5.99100762564511    5.90345494011714
H         4.78958980731792    4.61414520814316    5.99914907582354
H         0.73053311213824    4.21848379863020    2.49249088488274
I         4.43042907358711    1.21656647002269    2.19842742282705
Cd        3.68587446259531    2.39423438427353   -0.15393883576111
I         4.02005871622510    1.74717934277416   -2.71813894992333
C        -1.62820859117433    1.97124208637891    0.08031295480863
H        -2.70094797372997    1.88502809489082    0.16815895225064
C         1.25596931846233    3.74422034959531    1.65919088062592
C         0.46628633190527    2.89122639799302    0.78652686001242
N         1.12809258798511    2.18754821987150   -0.14251149211044
C        -0.91958732399041    2.80024800389230    0.93135717014938
H        -1.42119389851576    3.37693664453459    1.69376910721058
C        -0.93543512047483    1.25609579385629   -0.88410883132037
H        -1.44735485277937    0.59930745401041   -1.56842765406270
N         2.49136690002227    3.92381533572062    1.39196105580187
C         0.44471589657802    1.39908740304608   -0.95259577293077
H         1.02235082424699    0.85618124104743   -1.69128528526577

