62
CSD_code = LEZTUF | q = 0 | S = 0 | Stoichiometry = C29H29FeO2P | MND = 7
Fe        3.08770666507279    4.14912975665802    2.69778154722131
P         3.08423610859451    2.53935431376188    4.15716001714444
O         2.90393668235426    2.55947207477255    0.25407152790899
O         5.95151829984102    4.54831883184888    2.63533906240688
C         2.67752219279753    6.03997691991508    1.88932172098493
C         2.62919748265400    6.10394931718471    3.31868120937502
C         1.57906687106056    5.25536627772441    3.71851481768866
C         1.02766571403544    4.68185842515040    2.53933394158826
C         1.28931104083856    5.66339037187703    1.40522413319856
C         0.27952041063415    6.82413392338867    1.37633367327931
C         0.58656469167613    7.82685315440761    0.26704154172753
C        -0.49092352542477    8.90051275584548    0.11105834955941
C        -0.57398424223621    9.84335659669950    1.30587681295575
C         2.95766806475143    3.19270994325148    1.21038025774314
C         4.82028593910098    4.34287101278825    2.70842399272328
C         1.41110044327113    2.05950525055985    4.70214661142596
C         0.92150521049639    2.28626969347680    5.98211631582297
C        -0.39400249932479    1.97496165780405    6.28282865045219
C        -1.22624207713064    1.44691851676059    5.31060070562261
C        -0.74564987098046    1.23277665050179    4.02711765465257
C         0.56417613264324    1.54542873895682    3.72174732329759
C         3.74614092953494    0.91826179126872    3.62393573178927
C         3.20627630577554   -0.30090302050990    4.02378260446603
C         3.77585594960977   -1.48600593543289    3.59269713828261
C         4.88611477700713   -1.46721267429170    2.76537214815848
C         5.42723423066364   -0.25687330417251    2.36276564888195
C         4.85825173080583    0.92910446836909    2.78780910211420
C         3.95488187731237    2.72818854380128    5.75849281007991
C         4.39356686188955    3.99776405294146    6.11545122414617
C         5.03793977680580    4.20195532171372    7.32233711681742
C         5.25394682952516    3.13493441000666    8.17817268496167
C         4.82556157162182    1.86492742886672    7.82419563481472
C         4.17781807569011    1.65803873490387    6.62044083785986
H         3.30985362073910    6.70234744064606    1.31075872720355
H         3.21650051056193    6.74676830743360    3.95714623035627
H         1.24133403415491    5.08820592233186    4.73245594381236
H         0.10953164027129    4.10730436027395    2.57080314060101
H         1.30398312058176    5.18891723912018    0.42104931600409
H         0.29294868041577    7.32180693509497    2.34776632555792
H        -0.72123437869631    6.41070705781504    1.22218036877075
H         1.54534182073117    8.30877025201006    0.46886382191964
H         0.68078521258333    7.28584498827097   -0.67821940278261
H        -1.46028212800576    8.41900142309664   -0.03913172319468
H        -0.27162839738607    9.48629252073268   -0.78511241437991
H         0.39311579171529   10.30544212110401    1.49312529699384
H        -0.88081731320842    9.31120148163327    2.20253144786269
H        -1.29907239280332   10.63166084011452    1.11542763452874
H         1.56807227766083    2.70308109382334    6.74251548722057
H        -0.77078583768705    2.14847053945274    7.28056407192375
H        -2.25158913519726    1.20655819101649    5.55023650890567
H        -1.39691120218377    0.82765182193906    3.26621530765261
H         0.95291599104726    1.39600427400804    2.72220347314304
H         2.33182842761107   -0.32630193754916    4.65993164214295
H         3.34838930248573   -2.42861250213005    3.90316437306267
H         5.32540249530159   -2.39506385701064    2.43001592563097
H         6.28929074494331   -0.23836110479181    1.71260052765378
H         5.26132626474054    1.88053895287383    2.46602904277193
H         4.22800613499841    4.81781567047290    5.42891581252448
H         5.37511595122126    5.19154626576031    7.59453256654457
H         5.75977984853455    3.29042911289156    9.11973659930317
H         4.99869436904496    1.03195381272476    8.49014542957136
H         3.84693589485874    0.66642477604338    6.34649596954193

