39
CSD_code = LEZYOG | q = 0 | S = 0 | Stoichiometry = C18H18N2Pd | MND = 4
Pd        3.25310984312518    0.09788893579896    6.77720773912866
N         3.91962378728571    2.01760935537584    6.00030331032006
N         1.39033244635975    1.19376632202315    6.47298859866948
C         2.53922080782415   -1.57614543019599    7.69461993227165
H         3.26213253716021   -2.28413252396295    8.10544544339405
H         1.92246332133875   -2.11165943546911    6.95483487579045
H         1.89139762358740   -1.22572784891757    8.51615190521735
C         5.02104435347885   -0.78814125109482    6.78202377552636
C         5.51063189136838   -1.29795499057548    5.57895929701004
H         4.85761468528140   -1.34897253297535    4.70743479586550
C         6.81507627510646   -1.75056666962026    5.47451571302416
H         7.17655946059051   -2.14507463829512    4.53348187998069
C         7.67398737574461   -1.70517839702268    6.56676129674907
C         7.19244855954839   -1.19689023539092    7.76451015546532
H         7.84690429709025   -1.15518943108388    8.62592707187940
C         5.88548873383365   -0.74542823927407    7.87328727785052
H         5.53335926265009   -0.36168264458159    8.82825591774536
C         9.08965152572968   -2.18855943885546    6.43830824064425
H         9.58000100530023   -2.21634207669126    7.40858863427841
H         9.65969432662876   -1.52793406151715    5.78383786174366
H         9.11591196240157   -3.18772417494088    6.00583216328089
C         2.93618595800581    2.92891373584991    5.90445749446269
C         1.56290714919691    2.39719366706813    5.89835753775507
C         3.21211243773267    4.29370548039219    5.82870549086323
H         2.40885567786543    5.01221493147492    5.78509879903480
C         0.49882560091715    3.08634227195421    5.31685292821185
H         0.66332179373799    4.03672462550427    4.83395948312152
C         4.52830489072927    4.71776290416449    5.84029331738458
H         4.76443159116866    5.76991019767727    5.78522143770900
C        -0.76464667636330    2.52496195078074    5.33987211845557
H        -1.60142367832067    3.04138625930519    4.89393914773368
C         5.53536758428461    3.76673475813658    5.92985715509896
H         6.57383512573634    4.05662995184763    5.93891317763398
C        -0.93208069459155    1.28520390097391    5.94057355295355
H        -1.90074221258875    0.81307122385166    5.98148212713645
C         5.18288920966332    2.42993052848208    6.01249011082158
H         5.93664269757355    1.65308449858170    6.08242203752899
C         0.17505086556878    0.65888906734144    6.48846719700727
H         0.08390859824908   -0.30712054611999    6.97096100125375

