34
CSD_code = LEZYIA | q = 0 | S = 0 | Stoichiometry = C14H16N2OPd | MND = 4
Pd        3.95462808060969    6.68953619090990    6.75094118941460
O         1.74095333511130    6.75233154442908    6.43659076900817
N         4.10919283597722    6.19822195781440    4.29828804965993
N         4.38608536989230    4.65467790926126    6.54688237449372
C         5.84677051577121    7.19901231548236    7.33785506324454
H         6.15800414387457    8.13406463410064    6.86173149197099
H         6.55965037094718    6.41874200726244    7.05691434695890
H         5.88323521067540    7.33545966244506    8.42641793622037
C         3.12761867939197    8.58443666679036    6.89742892163355
H         3.39066449544367    9.34142871826885    7.63148881641112
H         3.07702227188221    8.94281033463144    5.86624130433382
C         2.16059977096937    7.59719952991641    7.27636612042744
C         1.70613455781489    7.51533822918665    8.72598761569794
H         0.89949789039813    8.23035906345556    8.88849114995744
H         2.52874151719471    7.75623688661527    9.40151992334669
H         1.32919371409179    6.51405832828161    8.93922736637867
C         3.51846597001747    4.99511466515040    4.33893676067704
C         3.99408311905402    4.08179638828442    5.39868388046545
C         2.49624518303652    4.63699858218674    3.46439351081985
H         2.02323950318342    3.67003146623532    3.53974298561162
C         4.02980400687004    2.69970471705775    5.22894536206288
H         3.74257681279334    2.26371392879448    4.28497228923577
C         2.06295384843852    5.56337275931588    2.53059129070919
H         1.25839731678532    5.32015947412555    1.85231984794697
C         4.45298987671663    1.89954087954772    6.27571947839015
H         4.48524065501995    0.82590402486868    6.16683279900533
C         2.67185716545423    6.80702153327312    2.49214496548016
H         2.35990454103944    7.55725433760135    1.78237305157588
C         4.83848387631320    2.50385142361419    7.46349855947593
H         5.16908101960070    1.91632624429711    8.30519200656756
C         3.69278675646127    7.07187096213760    3.39388265884428
H         4.21353660460671    8.02242403904202    3.38802907734395
C         4.79712366038634    3.88566326643980    7.54979523494800
H         5.10823732416809    4.40043732918356    8.45337380168976

