43
CSD_code = LEZYUM | q = 0 | S = 0 | Stoichiometry = C14H26P2Pd | MND = 4
Pd        5.03760347633156    3.61194195740087    7.96213325917674
P         3.11767494707661    4.81409339053619    8.52119377264680
P         3.55647634013707    1.80286188705543    8.01375943174880
C         6.66232044132793    2.65368305040298    7.16810263954050
H         7.61839957937214    3.18301607800465    7.16863099941171
H         6.40696118999866    2.41199343555816    6.12265957147103
H         6.80262312057426    1.70453863164501    7.70839490300954
C         6.26012354183583    5.14708963119067    8.21117281020022
C         6.50582797728775    6.07219962461691    7.20230155491228
H         6.12565506583404    5.89212343215134    6.19790778845776
C         7.24827407864273    7.21650039828523    7.45187739121005
H         7.43062354126040    7.92311853015286    6.65174517235811
C         7.76334710147880    7.46840377532064    8.71501155714958
C         7.51778633599140    6.54649824221089    9.72590761087472
H         7.91403253605437    6.73015893298364   10.71671192901792
C         6.77316200840737    5.40565873770544    9.47945726140619
H         6.59410746895535    4.69903382114830   10.29069891193363
C         8.57547428199328    8.70016650810302    8.99477611572754
H         8.59397546221723    9.35849265559030    8.12913381914041
H         9.60197932389645    8.42965197832762    9.24305073182795
H         8.16271493458514    9.24894685373464    9.84104370044957
C         2.68754779384536    5.40559849468388    6.83623215769144
H         1.63236186105858    5.66504409009022    6.74857911239518
H         2.94804987933804    4.62392910619806    6.11591955319423
H         3.30199152620609    6.28151019383850    6.62495145851316
C         2.66318895844090    6.28893713751608    9.51862592066214
H         3.39484223310774    7.07171246624904    9.32195105224311
H         2.70154100723337    6.04030420237502   10.57768597891147
H         1.66591198562220    6.64266103543756    9.25951466020553
C         3.29435884198499    0.15894918323005    7.22882473219072
H         4.24877895170530   -0.36386662921410    7.18633288541847
H         2.93109317935657    0.29493189123511    6.21158013563860
H         2.57901172333113   -0.43410626635257    7.79741465421799
C         3.85115487666033    1.29433930009721    9.75622406859910
H         3.00520418580948    0.74682490074511   10.17203991741438
H         4.05283005046490    2.19142076369509   10.35034795498072
H         4.74192384752610    0.66560295155379    9.77984205740202
C         1.68340980361380    3.69234226651082    8.89465074158175
H         1.71836061924685    3.48386074210656    9.96888065349796
H         0.74022880807784    4.20666168399220    8.68202336776497
C         1.79305169224991    2.39053142508844    8.10801276363607
H         1.45952894139209    2.54786308216390    7.07704968154960
H         1.16538648046595    1.60867642663808    8.54854556062386

