89
CSD_code = LIBFEH | q = 0 | S = 0 | Stoichiometry = C36H46N4OSZn | MND = 4
Zn        9.25812378315896    7.99329052559686   10.02234700966472
S         6.49368747933786    8.99768011166710    7.73137379310333
O        10.19887678298146   10.55042335429986    8.34615581556150
N         8.84430903786316    7.71348333355049    8.08925522226048
N        10.29561124960658    6.38732244592159   10.07767345743346
N         8.60496669906554    7.71876321603864   11.85082000564698
N         8.96452196253931    9.87960491021805   10.14334905338044
C         8.07998116981234    8.45486214766802    7.30389291576656
C         8.67040070663811    8.68520754366536    6.02223716840921
C         9.86986245717997    8.02506680987144    6.04795352086829
C         9.97948234834008    7.40717810745223    7.34775370677325
C        10.97986651167571    6.56679927969457    7.77686328628189
H        11.75054026803080    6.30979834808877    7.06342945658507
C        11.05001440036161    5.95949155664284    9.04255364709551
C        11.79359842194931    4.80115701009719    9.43801733343067
C        11.41945825630413    4.52386484092583   10.73476806030273
C        10.47764940145822    5.53754388345466   11.11539766442504
C         9.78594426158955    5.65624280932236   12.33093925510517
H         9.98255587524016    4.89930912936955   13.07721654842757
C         8.89431022244578    6.65378533942422   12.66357594210113
C         8.19769345432100    6.82657522889022   13.92089790486248
C         7.53689964214920    8.02088591293013   13.84317053233753
C         7.84390927432387    8.57651746895433   12.54363113577038
C         7.51598648986674    9.87074770275778   12.08168856222776
H         6.84198455394739   10.45335762045260   12.69096396325092
C         8.07627985438191   10.47291393289912   10.98189799153955
C         7.86611365927475   11.86154081454922   10.54928390632496
C         8.64497238225637   12.06509188077232    9.46776702759781
C         9.37129395625565   10.79153090050173    9.20933967120872
C         6.08556418658236    7.93954963310358    9.14754456936126
H         5.00976377569019    8.01266871159607    9.27658002741559
H         6.59413911179248    8.29068474456172   10.04099172189644
H         6.37243458875251    6.91772471421800    8.91750935359612
C         8.06356172393780    9.52670517256187    4.95310831593073
H         8.56311859974999    9.33163180785155    4.00287023130697
H         7.00587698891019    9.27072824834395    4.84702055388708
C         8.18809129916915   11.00893462085231    5.31054488482558
H         7.81355645858249   11.63050201890667    4.50017778798836
H         9.22932250465523   11.25922773252780    5.50066987065071
H         7.61410148561312   11.22243104184646    6.20949129884804
C        10.87209940776724    7.90838787160837    4.95068810874728
H        10.78958415621942    8.77421803156819    4.29213740244968
H        11.87821650769829    7.90510379646418    5.37341092069107
C        10.65093053555331    6.63029399063574    4.13648101993772
H        10.72706339392544    5.75196489930114    4.77343879179515
H        11.39297760886090    6.55182103821273    3.34510036628787
H         9.66122941434067    6.63730897617330    3.68538035873260
C        12.71223013136333    4.03359562116851    8.54752944217807
H        13.39005127801727    3.42738587425817    9.15164010814191
H        13.31698110623508    4.72935630171829    7.96032827719124
C        11.93178163137630    3.12077401377459    7.59847807684831
H        12.61211354234654    2.58126644722157    6.94305868216109
H        11.24661117347308    3.70479339211159    6.98794952287413
H        11.34906895574286    2.39702912698824    8.16352329744552
C        11.85138353476338    3.38469990362214   11.59693589982490
H        11.97214141609088    3.72878296688881   12.62699224800094
H        12.81834663226592    3.01054527627159   11.25487380456540
C        10.83111302440860    2.24391562076368   11.56071760298111
H        11.15162378719921    1.42544329043967   12.20170827073889
H        10.72229045753131    1.86678540817006   10.54664923237788
H         9.85779527994804    2.59207280038356   11.89895559511036
C         8.21098328951962    5.84210837735310   15.04068698438217
H         7.90672384279876    6.33219219530171   15.96745267025084
H         9.22453369284834    5.45926903080798   15.18202047948422
C         7.26424977884831    4.67349346407229   14.75521856012509
H         7.29434562154431    3.95247975575094   15.56917279112769
H         7.54632455815604    4.17172811342586   13.83247762072310
H         6.24327585677080    5.03263704065211   14.64849476855477
C         6.65058983095578    8.66560316970535   14.85566071643851
H         6.85908818785743    9.73735624396802   14.89746834486077
H         6.85313657602927    8.24809253848736   15.84378476969789
C         5.17511220069623    8.44911528589468   14.51045771138359
H         4.53673670533734    8.93500686735291   15.24509523899038
H         4.94271639889748    7.38666095797034   14.49849688855203
H         4.94944835403151    8.85726659364874   13.52773989848162
C         6.97256120204620   12.82873626512055   11.25080616675096
H         6.06503911076725   12.31897845598333   11.58255279497477
H         6.67987651402216   13.62026298279695   10.55824447910807
C         7.67952440923517   13.45117183996518   12.45734135406742
H         7.01400442773998   14.13860793418250   12.97498958871121
H         8.56092737811195   13.99953604727814   12.13388962510553
H         7.99728067370739   12.67919482188050   13.15446780657251
C         8.88176199773731   13.28492350727945    8.65103652117989
H         8.06816658491481   14.00035598554856    8.79139357704721
H         8.92130641455701   12.99804743173036    7.59764303576756
C        10.21647405579240   13.93122014301806    9.03129870626131
H        10.21280762341609   14.23010165172010   10.07778570484151
H        10.39984091634834   14.81043994519230    8.41786632002910
H        11.02460553636671   13.22084409406399    8.87635767399742

