61
CSD_code = LIBFUZ | q = 0 | S = 0 | Stoichiometry = C24H24MnNO11 | MND = 8
Mn        2.77972813546527    7.11094435548608    8.84450433182367
C         2.64462144072712    9.26028221507633    9.08576039432913
H         3.29549309050186   10.05593539443327    8.74992082994788
O         7.93285579043970    8.13289354178377   16.85092276087274
O         3.85214714651222    6.99851585681452   15.14602020305898
O         3.29507312920676    7.82573802886658   17.60049926266682
O         9.47192918934530    7.61903366541897   18.92266343568108
O         4.50522260128558    9.92323999172471   11.21944949217876
N         5.40399383157870    8.44234513184784   15.97346366069054
H         6.14081174195435    9.07401668394284   15.69006513359265
O         1.02571271178959    7.68397931626837   17.55672712345022
C         5.60806120790457    7.85888616972113   17.23214544594562
C         3.69072105091242    9.04578193061552   11.41481625973102
C         3.56417107059343    8.32843682771470   12.74126982004248
H         2.56887316400561    8.51382544431548   13.15476047761071
H         3.65346565240289    7.24998575765339   12.58330561396888
C         7.16660570546692    7.09575658970201   18.92067326627511
C         4.56750511134240    7.96411697353292   15.00949220093948
C         8.51053382171624    6.89297755816489   19.51046739615508
C         2.72787948218815    8.63912173368194   10.37224035650015
O         8.72369260640111    6.16449199648148   20.44980048999741
C         4.52057111183422    7.49814989736428   18.05010511198708
O         5.56570923511618    7.46481684368277    7.99894099404437
C         1.57896174271126    7.80130171049395   10.50861008710570
H         1.26338034360105    7.29758899447421   11.41226527546862
C         4.78071314562648    6.87374664185685   19.26873158989128
H         3.97004611930291    6.56654024833577   19.90862615269169
C         6.91999446362285    7.68588456092141   17.67513990392773
C         2.14455766538260    7.35569591988727   18.28198744647489
H         2.22804594815621    6.26236242315053   18.42994423634227
H         2.04697305094537    7.86276005250983   19.25306408901328
C         0.82007457707949    7.89962962188064    9.32583722540739
H        -0.17351491053613    7.49638001674499    9.18111864740744
C         4.47818680885942    7.28941378820555    8.31052264217926
C         1.47844505541742    8.80527573618735    8.44790245165723
H         1.07036317691406    9.19323254640436    7.52432648930287
O         3.30707443072139    4.65390397660957   10.35602616187761
C         6.07958672723826    6.67147593374808   19.68224006619468
H         6.28465446886065    6.19716973804506   20.62954200993362
O         1.89807777988960    5.73905986198271    6.40606350208241
C         4.62616704144730    8.78665882777606   13.73334438535099
H         4.48836999710889    9.84336249039719   13.97154410826022
H         5.61414175539350    8.67444618205403   13.28057710380264
C         3.11375973410039    5.59697266717820    9.73337796785920
C         8.67558249990496    7.13529696006451   16.18564494231614
H         9.69730129307315    7.53130418188249   16.09214564153722
H         8.68153074338663    6.20233988022136   16.75953273473741
C        10.77162443873986    7.48361880620288   19.47629873460833
H        11.39791322595066    8.20715654436338   18.96098273014727
H        11.14757756216251    6.46991895515715   19.32064543699438
H        10.75010254484644    7.68690365129918   20.54890923003292
O         8.14161055830578    6.82505098433067   14.94193814089619
C         2.27374768659311    6.25131950866998    7.36082524670353
C         0.86739859739762    6.91617603813556   16.37051131504735
H         0.03410588425141    7.36262402753258   15.83359099920696
H         0.63152382174605    5.87577482927444   16.62078904797106
H         1.77368200049976    6.94373734045305   15.76260572933649
C         8.42862325280988    7.77675806245148   13.93719824660848
H         7.90442976438949    7.44679335713374   13.04297939823503
H         9.50531416774112    7.81296485772221   13.73699913208065
H         8.09119480767658    8.77802817198447   14.22189768980512

