81
CSD_code = LIBGIM | q = 0 | S = 0 | Stoichiometry = C32H33MoO14P | MND = 6
Mo        9.63501613047474    1.44295397012298    3.23093804554997
P        11.19853076855890    3.31382669759690    3.75390774697952
O        12.80263438373660    1.87131698650350    2.02046650101576
O        10.23522010840789    5.71829054668728    2.16704974107102
O        12.81639316080144    4.94243098686987   -1.74390579808502
O        12.78682432394976    5.68590968867684    3.98039301046025
O         9.68450729012108    8.38246909612633    6.54867742344385
O         8.64655510083835    3.95073153382198    5.23294562558979
O        14.40077392114893    3.65028361237494    3.12463963578269
O        15.80534673280676    1.72475299634422    7.20771748841752
O        11.11682673634171    2.50889835670683    6.23783500984583
O        11.99011823598940   -0.40337549722822    4.04632921905988
O         8.42377714631923    1.03004220071879    6.04914613601983
O         7.60391631352102    3.65036562622199    2.42422352935309
O        10.41182704785796    1.34625685967799    0.23511661429564
O         7.74447481766397   -0.86766174936649    2.42173194176330
C        10.72684524033580    4.84491608995430    4.63406355331407
C         9.49220312565193    5.00700196852050    5.27232756885130
C         9.18452628349604    6.20517441375003    5.90126925759189
C        10.09674019198240    7.25580929814460    5.90229213654967
C        11.32471968673282    7.11460983793873    5.27198839489384
C        11.62825984728381    5.91320016874400    4.64048511352615
C        11.71064566349272    3.90399084067919    2.11445249822422
C        11.16961350875673    5.02032925306712    1.46957224234046
C        11.57300448106640    5.33849781913286    0.18200000257001
C        12.47144265526629    4.51749231789625   -0.49531568038535
C        12.93090354544149    3.34490939014031    0.09025374606835
C        12.51856119078141    3.03400174137494    1.37945021520417
C        12.74625176523054    2.97080345568339    4.67658017245102
C        12.44541954001758    2.49067916494620    5.95526420499434
C        13.42100617976001    2.06087637221431    6.84443386604067
C        14.74885214929321    2.12528698114934    6.44768927884079
C        15.07751276027282    2.65393570996201    5.20356395102466
C        14.09776618974360    3.08550533194462    4.31876934442448
C         9.58568331466105    6.79832487174770    1.54464254245949
C        13.66396703815507    6.75512031258694    3.74263759298131
C        15.74707811551864    3.76119279164939    2.74061348958784
C        15.54849545398945    1.14333807616729    8.46318900960197
C        10.54486717344283    9.49444194266461    6.58510889650937
C         7.34515862287080    4.11001763632513    5.74925748892533
C        13.61784649575166    0.92025772639430    1.38075734773698
C        13.63936243375504    4.11855485461596   -2.53282185249244
C        10.70906346444866    2.29885062608789    7.56899392014538
C        11.09523330485240    0.23605731518589    3.73490572782759
C         8.92874759931333    1.26376928861039    5.05154916352291
C         8.32432162973474    2.82476429039316    2.74435860294300
C        10.19255487434472    1.45076426391146    1.35348604301771
C         8.44189229348606   -0.01149551496432    2.73107458224789
H         8.24395279779651    6.36957606461369    6.39859856527675
H        12.03480014415541    7.92379039869001    5.26673954920532
H        11.20116813606422    6.20383131143519   -0.34015564437666
H        13.56951458426345    2.67169618251790   -0.45515982806045
H        13.14933121212390    1.67694321422878    7.81238180321839
H        16.12577051801011    2.71213832779131    4.96413109835007
H        10.28617146606113    7.60184879393339    1.29253366858589
H         9.05648148426747    6.48145988499902    0.64060352427088
H         8.86592500908209    7.16406242893643    2.27582691494173
H        14.13866275608330    7.10480570537394    4.66695312684635
H        14.42634296046521    6.36420957305153    3.07165624311942
H        13.15512993612229    7.59367702543955    3.25556436742174
H        16.23979752451740    2.78427473960390    2.68565605979009
H        15.73002080694512    4.21096070118083    1.74739686781240
H        16.31360439979569    4.40777092032121    3.42003519182232
H        15.06402491849831    1.85134381526841    9.14366811320427
H        14.93007792513485    0.24515347775443    8.37073340223326
H        16.52251647354111    0.86943270999284    8.86568688483412
H        11.48220111289747    9.26264612991944    7.10134955488185
H        10.76541608089653    9.86668013388365    5.57930263375619
H        10.00990397802399   10.26238788859527    7.14177148461033
H         7.35931905966534    4.30128165574209    6.82764272956681
H         6.81134566479850    4.91972686813266    5.24233686098312
H         6.83115741344337    3.16870263194771    5.55916635573768
H        13.73171490001832    0.10040867306799    2.08879999213609
H        13.14724177342228    0.54320890962124    0.46605898188258
H        14.60411597685125    1.33127727837904    1.14151293386741
H        13.17829860587610    3.14191350987655   -2.71007519806072
H        13.75346514984900    4.63928159803755   -3.48245833135809
H        14.62599779909286    3.97883535037523   -2.07818309051619
H        10.85851770719660    1.25848045318884    7.87655106186703
H        11.24099803812806    2.96680068124126    8.25474696310812
H         9.64572564940840    2.52692241436879    7.59922286687224

