41
CSD_code = LIBHUZ | q = 0 | S = 0 | Stoichiometry = C19H18I2PRh | MND = 8
I         6.99072742276734    3.25208257418908    4.29614676202410
I         3.41999679302704    2.14211226579253    3.45549237893288
Rh        4.68692082603368    3.04592277009253    5.59085021011585
P         4.17456118720737    5.17792520045255    5.13087671592748
C         4.70074608766214    5.97476572577166    6.72317138618770
C         4.09956051861576    5.14258627251520    7.86786907054677
C         4.35037657568985    3.67641957548406    7.63571015623979
C         3.36735028155657    2.68996015647875    7.31669569943772
C         4.03478491370241    1.43653545779973    7.14101186231604
C         5.41081573627446    1.64946584126729    7.28088845623323
C         5.61771077262007    3.03964868737323    7.57004259364355
C         4.91281333500963    6.11083615237771    3.77141979393892
C         6.03297443540454    6.91994564704136    3.92362446460229
C         6.57072017208406    7.55406983725165    2.81840909777738
C         6.00849378763038    7.37057063860434    1.56580427887299
C         4.90002785195303    6.55283160116970    1.41138563696406
C         4.35048447040410    5.92155772275358    2.51004528914547
C         2.43065647112364    5.69473634828873    5.02920687523696
C         2.18273299138883    7.05605050639668    4.86324345476863
C         0.88290236775401    7.52044280200007    4.82202578327524
C        -0.17615798194102    6.63305211744821    4.94222817800860
C         0.06754886573158    5.27991345258912    5.09955756339017
C         1.36891346040736    4.80929767186817    5.14476706942771
H         4.38491929266183    7.02141460199880    6.76695688416825
H         5.79427747655230    5.93195912366650    6.76951814180520
H         3.02024786241003    5.31804902416073    7.92008312609523
H         4.54239804100674    5.45021735850881    8.82015960595991
H         2.29846173112427    2.81990112474893    7.40926340578643
H         3.54955231234748    0.48759365138658    6.96897509055101
H         6.18143410599154    0.89387758044228    7.26021082405747
H         6.56599824165186    3.48011440457371    7.84472996803777
H         6.49107519542738    7.04931705133384    4.89326392292811
H         7.44059637168245    8.18292133702402    2.93523210687770
H         6.44258220684203    7.85764956104360    0.70574732588619
H         4.46981958115685    6.39804773700066    0.43372366127947
H         3.49330301330905    5.27028148444454    2.39890918622538
H         3.01179694724260    7.74339463859323    4.75414954177250
H         0.69388253588358    8.57555589643192    4.69032104892240
H        -1.19126022744457    6.99874020031531    4.90458767911970
H        -0.75532770858110    4.58580414002152    5.18114740768674
H         1.55298167862920    3.74973205929583    5.24634829582321

