93
CSD_code = LIBJAH | q = 0 | S = 0 | Stoichiometry = C37H49N5OZn | MND = 4
Zn       -0.58142370135313    5.45131633497945    8.03762647381844
O         1.30184382911494    6.54247629021700    5.67490495787062
N        -0.74201522722915    4.21915653082342    6.46784403655909
N        -0.04250970326878    3.99139896743383    9.17283595749306
N        -1.56247298067864    6.31602117291184    9.51326279943652
N        -0.32253393835768    7.14832120726193    7.15891270591470
N        -2.29701986355663    5.23660974416412    5.03545739845713
C        -1.18011767879175    4.49524488072317    5.24382923935674
C        -0.43591104267687    3.75922739284915    4.24452192200648
C         0.49538391237435    3.03484572880640    4.93393385746994
C         0.31100519277015    3.32726154590017    6.33644012935662
C         0.98191103086051    2.74568738878736    7.38025224071701
H         1.74253318537015    2.01583798143786    7.14181666181875
C         0.70072137669587    2.95270202839790    8.74626584423367
C         1.00731649119141    2.09090664669223    9.84740275370102
C         0.37136095792123    2.62583532764334   10.94628273462573
C        -0.28537641732977    3.81959144921355   10.49750223833435
C        -1.10739900938889    4.67254471438357   11.24183290775259
H        -1.26591964300293    4.41087338092094   12.27862806574587
C        -1.71634657525471    5.82371927441177   10.78290711886443
C        -2.49582953186638    6.76099209273640   11.55763127795751
C        -2.75405967559807    7.82686054362545   10.73817162645155
C        -2.12265333915212    7.53230790047770    9.47459216326628
C        -1.97035496017135    8.42758972612444    8.39095937835599
H        -2.51495011111509    9.35811307887715    8.44678987559174
C        -1.09146596486990    8.25504196574692    7.35383486054189
C        -0.77932229931718    9.24241531656632    6.31358230118822
C         0.18677048470162    8.71182864955129    5.53602765146934
C         0.48757350504469    7.35727214828353    6.08194577644456
C        -0.69620300213270    3.68237370275572    2.77196051204212
H        -1.72619232324409    3.97401407363993    2.55946198928000
H        -0.58176782951164    2.64146630957076    2.45817897286659
C         0.27247633926310    4.53964823056842    1.95278405281392
H         0.07028555479590    4.42518728666684    0.88958687106520
H         1.29921200894243    4.24079448086156    2.14654118157516
H         0.18496694159140    5.59248576831857    2.20837521260601
C         1.47099423264630    2.04390177195308    4.39345719854492
H         2.41570373847764    2.13159212232621    4.93337428886835
H         1.66691328850089    2.25331433274917    3.34158765511162
C         0.93605280126225    0.61497027412989    4.52787565953824
H         1.65949733599533   -0.09835914004103    4.13912355384315
H         0.00747083426342    0.50442579994909    3.97222140172221
H         0.73616022283009    0.37627754206821    5.56948560569862
C         1.79216845677649    0.82535419451600    9.74828693641305
H         2.17826404235471    0.55269105530116   10.73258856928303
H         2.64633666128010    0.97688760874618    9.08340689387269
C         0.93318258551164   -0.32159721252236    9.21024836857335
H         1.52455505120797   -1.22989611101746    9.11477472022773
H         0.52557448320245   -0.06456328879090    8.23497416414001
H         0.10151429879054   -0.51923965851857    9.88242157030900
C         0.31671227974755    2.08366436974714   12.33592971300086
H         0.36088919829743    2.90663212216478   13.05349139357082
H         1.18069698842986    1.43994628003603   12.51353953735351
C        -0.96430109384013    1.27848286332586   12.56922454213521
H        -1.00104929794029    0.90830212214431   13.59173185118004
H        -1.00479473440595    0.42856102907406   11.89218515086484
H        -1.84076701378990    1.89679679607375   12.38906099712833
C        -2.87069343448963    6.58037893307994   12.99031866802052
H        -3.11465658328947    5.53156938411620   13.17576659691061
H        -3.75864171806317    7.17532743944978   13.21484065334375
C        -1.73398066426224    7.00749149842342   13.92276377721389
H        -2.01335276297842    6.84518139667254   14.96170137162193
H        -1.50894066005454    8.06234342078558   13.78606365309032
H        -0.83168785155209    6.43915509662163   13.70965900443692
C        -3.47698833378378    9.09324725248429   11.05740470910665
H        -4.16450484768139    8.92361544338638   11.88890786387682
H        -4.06915832586338    9.40473306906024   10.19298684711084
C        -2.50340470184051   10.21343530850722   11.43239258585615
H        -3.04326565658447   11.13683423883374   11.63211400302757
H        -1.79528782650745   10.38867850968990   10.62576326229394
H        -1.94041487788875    9.94275234120448   12.32229200954592
C        -1.47483479647894   10.55633978091161    6.17471369937908
H        -0.85436963181000   11.24087413776838    5.59355312887284
H        -1.62839353408623   10.99962542819103    7.16073823530917
C        -2.82655094668774   10.38370856901484    5.47671594327218
H        -3.33991706472557   11.33961499581597    5.39958736824878
H        -3.45774123843567    9.69344315477611    6.03251478889783
H        -2.68376458931737    9.98732443501841    4.47344776086150
C         0.91992302833821    9.28257039044549    4.37263528322613
H         1.98669248994127    9.29460116493194    4.61460101829907
H         0.59739936677234   10.30967103375356    4.18651043234262
C         0.72166901270594    8.43244260931917    3.11798464350165
H         1.30838472455379    8.82965707238947    2.29246702537120
H        -0.32703460406158    8.42090765966970    2.82450301559172
H         1.04774122472874    7.41640170870917    3.32397002914173
C        -3.18603614128253    5.50196279971452    6.14238432189147
H        -4.19194721616882    5.64204279184176    5.74039384573516
H        -2.90742313382755    6.39930253107860    6.70316716378071
H        -3.18844354232561    4.65043807707069    6.82036240827613
C        -2.36469744581181    6.22735057030842    3.98889977771456
H        -2.25170253554365    7.23044729196162    4.41708337722748
H        -3.33187062495871    6.17169876714661    3.48204780384349
H        -1.56809490906172    6.07701756208857    3.27067040532179

