83
CSD_code = LIBLEN | q = 0 | S = 0 | Stoichiometry = C40H38N3OV | MND = 4
V         4.58172556712885   12.48233944551954    2.37240895407919
O         3.98266569519399   13.59977453838514    4.24063832954971
N         3.81571423665228   11.48286620973541    1.07208250789181
N         5.58019906340296   13.92755554900748    1.92260843641872
N         5.54378380375460   11.07937713435160    3.13777370483753
C         6.45070544792925   10.27206861749401    2.49537550969923
C         7.04996201231048   10.69015548882407    1.29807549336435
C         7.88332942120752    9.84849808540976    0.59128780175920
C         8.15176155656204    8.56739222854013    1.04924882455912
C         7.56272297460349    8.13558962719303    2.22664651580517
C         6.72438739482725    8.96700181752972    2.94019537164452
C         5.30409577344655   10.87167942550446    4.48184482074257
C         3.99989308226929   10.87102728209886    4.99676240143836
C         3.77445079366264   10.77582048781552    6.35633467923557
C         4.83316461251072   10.66497070340934    7.24410364591544
C         6.12881723306071   10.63770856965297    6.75057443116983
C         6.36513657104889   10.73607543531703    5.39473636151803
C         6.94547940677716   14.14422431467412    1.94141909313792
C         7.55989951373842   14.98280830572524    1.00126564325774
C         8.93108315218476   15.14163982309310    0.99109707800370
C         9.72183435894168   14.47430124419721    1.91224559722047
C         9.12543037009212   13.64355532494775    2.84821065713869
C         7.75519204082418   13.47859300492078    2.86896898764751
C         4.72693780422929   14.98946025544302    1.76969442414765
C         5.04275389321205   16.27373559484847    2.25010820708494
C         4.10963519199016   17.28871230407752    2.22743063069382
C         2.83305997243316   17.06558603011318    1.73182118050767
C         2.50905421125509   15.81175769311493    1.23851862803505
C         3.43707015096771   14.78617766197678    1.24662616022558
C         3.01095666503736   10.51525687493506    1.66772947029868
C         3.39386620099765    9.16947213812218    1.71830002271389
C         2.60394061353739    8.24646615116797    2.37499970748772
C         1.41105551653973    8.63336979306312    2.96743145802614
C         1.00690605748601    9.95664546425315    2.89760636172074
C         1.79817497342045   10.89249262625165    2.25539397765947
C         3.94833353998180   11.47880162457835   -0.29083629851254
C         3.18428246790817   10.63404587470260   -1.11508478406582
C         3.32579982961662   10.66102845089242   -2.48705287590051
C         4.21784718785205   11.53211685240318   -3.08958044029870
C         4.96644612526245   12.38563559732027   -2.29325142184815
C         4.83745562222775   12.36699476320094   -0.92098800593872
C         4.88464712800565   14.14898514228058    5.20310392811806
C         4.03050289979043   14.89610769511836    6.22695540718533
C         2.80549854440674   15.27158950534796    5.39709927363607
C         2.65671796575257   14.02760063746767    4.52860617550863
H         6.85298673505331   11.68961936269992    0.93462273122120
H         8.33282622398751   10.19686192085855   -0.32771729717231
H         8.80642371057099    7.91262581762923    0.49400445166978
H         7.75100944317235    7.13474949829355    2.58958773779407
H         6.25063898165623    8.60615749338049    3.84333159282883
H         3.16242206227114   10.92412166302799    4.31261852218442
H         2.75855676224411   10.77129209943824    6.72866915156949
H         4.65136630417730   10.58832320157284    8.30566259703418
H         6.96306249734803   10.54303796307408    7.43126339895839
H         7.37929308918475   10.71579214381191    5.01772850424144
H         6.94478978652167   15.49730572703274    0.27403106394451
H         9.38643671283926   15.78809589569048    0.25462247056848
H        10.79401208907305   14.59925566962603    1.89937379330188
H         9.73598185427627   13.12234374717175    3.57143319625264
H         7.28646937236507   12.83597907030450    3.60284091429130
H         6.03144580528204   16.45617731473771    2.65189591007964
H         4.37828621395646   18.26495842967330    2.60616109783524
H         2.10622213470018   17.86353120255629    1.71791615437191
H         1.52449440550212   15.63505589852196    0.82671147887049
H         3.18699487737040   13.83008290737656    0.79692185841495
H         4.32095109951481    8.87249119300426    1.24616188298273
H         2.91786454327279    7.21396732786847    2.42046770961504
H         0.79611443278806    7.90571246730141    3.47520226087164
H         0.07058279835249   10.26134178716985    3.34410897859207
H         1.47995060958258   11.92930063673342    2.18608757485998
H         2.47391151194601    9.95480132857513   -0.66352946601253
H         2.72730637674744    9.99557570651738   -3.09303557503472
H         4.32545761730426   11.54912417337424   -4.16345814798665
H         5.66171068125142   13.07560614760445   -2.75027796538065
H         5.42931899281834   13.04177374052566   -0.31552337817426
H         5.46692352408253   13.33868238951679    5.65347499429622
H         5.56685323649417   14.83417419265511    4.68209196860427
H         3.74566279641568   14.22726724200962    7.04028123572046
H         4.54802027040304   15.75751073412516    6.64154532140623
H         1.92187334908351   15.46911580090628    5.99877298684726
H         3.01868581220492   16.14025568730864    4.77183915401776
H         2.14148232629417   14.22395400149691    3.58311528125509
H         2.12933431582334   13.23341702282762    5.07885982274356

