102
CSD_code = LIBLIS | q = 0 | S = 0 | Stoichiometry = C40H55ClIrN5 | MND = 6
Ir        8.56124016030257    6.33284970941553   14.63352287534609
Cl        6.85440833069347    5.15184731089374   15.74394766682357
N         9.94759593503186    6.08770278368983   17.39378825023658
C         9.18800141970448    6.77481061077933   16.52294572393317
N        10.02396236669420    6.69513337905918   18.59429693753459
C         9.30896534750257    7.76268601946695   18.48241649012155
H         9.19362883590208    8.48099589842840   19.26589901603358
N         8.76196801015454    7.85083656163556   17.24473850242119
C        10.49215747952673    4.73640507739786   17.30904155324955
N        11.91285348977950   10.51692166182590   14.86826267046709
C        11.75291681100723    4.64991665495718   18.17241403753580
H        11.51505343548190    4.94310319847283   19.19482113154617
H        12.50326512626518    5.34281941290327   17.78598774405823
N        10.66587615397307    9.73858306071598   16.70832448746781
C        10.84536909986406    4.35374548262073   15.87718090809762
H         9.95352142063196    4.43167521436622   15.24726126192336
H        11.60487008932225    5.03779431844516   15.49648806606393
C         9.43004092109612    3.77469823503640   17.85746214198754
H         9.18121824335762    4.06173029745559   18.88169402039552
H         8.52435044321401    3.85351532660660   17.25331373287171
C        12.28823936595518    3.21846909523145   18.14307733106031
H        13.18891112233306    3.16174010158551   18.76472985340814
C        12.63449510586433    2.82874344243147   16.70744472485674
H        13.02985225955952    1.81094750256306   16.68233904037763
H        13.40357697747160    3.49841190255115   16.31490591319726
C        11.37514220532211    2.92123110996805   15.84745172042530
H        11.61816279637893    2.65267793496369   14.81324484533557
C        10.30884047306564    1.96881810154371   16.38428781788680
H         9.41002816754511    2.03443785409708   15.76863716150541
H        10.67297105507945    0.93984632156097   16.34339334287873
C         9.97280977363521    2.34885692534760   17.82481008806406
H         9.21044639508748    1.66645823313608   18.21487113408384
C        11.22983453135702    2.26103473803802   18.68926007328140
H        11.61567099993593    1.23915131707722   18.68339853587513
H        10.98945847056053    2.52280939577682   19.72185261108395
C         7.82487053191662    8.84784866097566   16.77739524327504
H         7.78936651344633    8.71487465912849   15.69017839994570
C         6.40573793156067    8.54208896146665   17.30419117078003
H         6.23928903691478    7.47841478108265   17.09593423369992
C         6.24785617040940    8.76722953130178   18.80572326243220
H         5.23373175634774    8.51296871284684   19.10477793921504
H         6.42461145054232    9.80774763774271   19.07109124661869
H         6.92482314777333    8.13379318544781   19.37266917722185
C         5.33295479030667    9.33089238322168   16.54241974324632
H         4.36386199052465    9.02760476812933   16.94340253861345
H         5.44099331792639   10.40063905203167   16.73835344390737
C         5.33597411854110    9.07251436195941   15.03983932468023
H         4.41011480049384    9.43098382455088   14.59537701924218
H         5.42028741823256    8.00569971751207   14.84849285365627
H         6.16180381302773    9.58166107880488   14.54847352860899
C         8.35022150514874   10.26091617084179   17.08389528592497
H         7.60832799514482   10.99634358708574   16.77653334554278
H         8.54262082234228   10.37087325276143   18.15064607936646
C         9.62447887701275   10.46356749281549   16.31856625906923
C         9.70191257561471   11.28925522259586   15.20407869055242
H         8.86284574765078   11.88661873068656   14.88430425390123
C        10.90694434052639   11.29741275025492   14.50354277589732
C        11.76059794232580    9.76907587106269   15.95692440270928
C        11.12485190859877   12.17813514614026   13.31367501808899
H        12.00807876676695   11.82773580469492   12.78177757695392
H        10.26258010565337   12.10982327094972   12.64643762839474
C        11.31226027094086   13.64303787318149   13.73284114636983
H        10.37218039403057   14.02173403634493   14.14218503095353
H        11.54657115151444   14.22794381757728   12.84067257098437
C        12.41452310682582   13.84375228602735   14.77381752763043
H        12.13743110254436   13.33318874864387   15.69931544695391
H        12.48295213478776   14.91179774945665   14.99575972426161
C        13.77450221422618   13.33328441540556   14.31332220804650
H        14.54345521521879   13.62205131110353   15.02612944765654
H        14.03180791268787   13.75195966702410   13.34247719401153
H        13.76861924112312   12.24907744081125   14.24319254268105
C        12.86713598026086    8.89135450887450   16.34306948698781
C        13.87554320914759    8.59890506291774   15.42714804476943
H        13.82600220796992    9.03753290903679   14.44274273758069
C        14.90896471350963    7.75318317078770   15.78129332881828
H        15.68579611221410    7.52276214734575   15.06683649413412
C        14.95241196283727    7.20262283518948   17.05287154814328
H        15.76379573413610    6.54503599735828   17.32946105537746
C        13.95482876058501    7.49588403175317   17.96965981365782
H        13.99184365261989    7.07343432214896   18.96303215072784
C        12.91125027215435    8.33069378224151   17.61714994184100
H        12.12461341864832    8.55729793667336   18.31909082329738
C        10.39041823137191    6.88041611682904   13.70618445189258
H        11.20836320254811    7.01973409312791   14.41245304402352
C        10.74450867277392    5.94829910024668   12.57012900995759
H        11.37591829459955    6.47806864837418   11.84803295048136
H        11.34278394674257    5.13205639067376   12.97933399467033
C         9.51022805620374    5.36003545188562   11.85945629023672
H         9.75065633604213    4.35448460834546   11.50911227437270
H         9.26280442925584    5.95670921939467   10.97966647783650
C         8.29631955159107    5.29216630006444   12.75983055124066
H         7.96762824630984    4.28609846280295   13.01241220143566
C         7.36078189937806    6.30928732048781   12.84386424450497
H         6.34421066273502    6.03946338060381   13.12074486311884
C         7.45750511567525    7.61326823654838   12.08726271969910
H         6.65650325718514    8.26783005545782   12.43508133723332
H         7.27972544949004    7.42668394209807   11.02249650039778
C         8.81173562401511    8.32062979196221   12.28129895623720
H         9.48711429674401    8.07957502985665   11.45856317427284
H         8.65413044833589    9.40143549791286   12.25810362630154
C         9.48267028516480    7.94853769339521   13.58957252793808
H         9.66976503240639    8.80096380389391   14.23562068630057

