81
CSD_code = LIBMEP | q = 0 | S = 0 | Stoichiometry = C42H36CoPSi | MND = 8
Co        8.54049726664763   12.93478672241777    2.61397151454136
P         8.77902587996033   14.83924178214462    1.55541805680305
Si       10.31633309187040   11.82525008816249    1.74373271504914
C        11.76296791470497   12.87304164695170    2.45848488852185
C        11.23246520157590   13.52092577709764    3.69759182971913
C        12.11644265767326   14.05758386147322    4.62445029282121
C        11.66241613325383   14.62434959983075    5.79984206828651
C        10.30596272273032   14.62882276391501    6.06113466971224
C         9.41660472145488   14.09982399671032    5.13755949273177
C         9.85413521863352   13.55632919311590    3.93119826639387
C         6.41844699097213   12.88525610883170    2.13308452853479
C         7.00730267443845   11.65557369471928    1.78962821305967
C         7.55727917132388   11.09587527998953    2.96783116597492
C         7.26955133373996   11.97724583207072    4.04234751249755
C         6.56435566966783   13.07739262575768    3.52902389445978
C        10.63827606516886   10.09395388783232    2.50192419434370
C        10.84791187571519    8.96180618769953    1.72421028460051
C        11.09342169407605    7.73017516083775    2.30699889984425
C        11.13671827052865    7.61034004001608    3.68506197527076
C        10.93893349521204    8.73134595413282    4.47522068392720
C        10.69146192895759    9.95721195925048    3.88693094169642
C        10.46311228530916   11.61273537281491   -0.15260576256669
C        11.43142531358325   12.27671662951246   -0.89465679783747
C        11.50436525893496   12.13659386867374   -2.26929864359070
C        10.60962213371768   11.31457985495016   -2.93160856983039
C         9.65139847314823   10.62608843730314   -2.20656559177743
C         9.58131969490492   10.78044921767761   -0.83449875133567
C        10.32427867144154   15.81738558066775    1.66855886352920
C        10.60627593051544   16.66255828483710    2.73427787123124
C        11.82020614237831   17.32349398662654    2.80338337261328
C        12.77023674816710   17.14851024653358    1.81291533624469
C        12.49975075380767   16.30562669458350    0.74754557780437
C        11.29074414698602   15.63892092559329    0.67989308561505
C         8.54478021180736   14.89435379321336   -0.25920093081159
C         8.77669290954049   16.07303426297713   -0.96866515471120
C         8.60648420603157   16.10344766331349   -2.33894269688439
C         8.20290714078255   14.96305623171022   -3.01791863875510
C         7.95874608133740   13.79530114440015   -2.31824840539479
C         8.12661356843196   13.76374522062093   -0.94428406865522
C         7.50640994003809   16.04059206329344    2.10341887102223
C         7.42973451915216   16.35668310939261    3.45807393519562
C         6.46107755571793   17.22384742680655    3.92744552057894
C         5.53590977383349   17.77129126139929    3.05395649712942
C         5.58082513603980   17.43336338327569    1.71273439976029
C         6.55532195822667   16.57211228722352    1.23834213287501
H        12.10326213614915   13.64234431052915    1.76802843808396
H        12.62825467433503   12.25534114352644    2.69880174697782
H        13.17732529461443   14.02263810051610    4.41575110120428
H        12.35981543515723   15.04321894098682    6.51102966255458
H         9.92919706264002   15.04249087086326    6.98687247230655
H         8.36717729756637   14.10736259165263    5.39822342210348
H         5.83580872286672   13.51379611177446    1.47466643960986
H         6.92140692925383   11.15679707808489    0.83751360199279
H         7.95172709828685   10.09746145900652    3.06835242676901
H         7.45091338279370   11.76304868657153    5.08399926488583
H         6.10293323773052   13.86908710884038    4.09855505361407
H        10.82564160751244    9.04568687835903    0.64769403041293
H        11.25229070756576    6.86117295897532    1.68371948731372
H        11.32539473708322    6.64918864875577    4.14177646324532
H        10.97614082252334    8.64609608071250    5.55227037348606
H        10.53269198597483   10.82833752622897    4.50644883753092
H        12.15019306690516   12.90189733552064   -0.38741961431833
H        12.26389925355291   12.66693263294314   -2.82666033585092
H        10.66327974245512   11.20443007349619   -4.00518467726742
H         8.95867387355680    9.96884617348791   -2.71410852371763
H         8.83076495816572   10.23900766641958   -0.27691597657243
H         9.88181858823202   16.81525488347501    3.51694991416224
H        12.02426949797808   17.97580556814016    3.63953257837864
H        13.71738268623464   17.66404822468448    1.87019211518920
H        13.23635370701918   16.16032609266943   -0.02967123965188
H        11.08657688700844   14.97677307413269   -0.14986203629690
H         9.09181644078709   16.96330599510626   -0.44117370540982
H         8.78953867715338   17.01939717360106   -2.88192161812276
H         8.07798846445779   14.99003967387172   -4.09031894137648
H         7.64258999566454   12.90471714441879   -2.84058804319153
H         7.94274561075772   12.85404670477309   -0.39573458953978
H         8.11987803885351   15.89639304527032    4.14889296461995
H         6.42046318035456   17.46478193564058    4.98013205255006
H         4.77525889735059   18.44529804236905    3.41936944635295
H         4.84934410489827   17.83830516417718    1.02824304825691
H         6.56343466440080   16.31140579006695    0.19014681951704

