101
CSD_code = LIBPUJ | q = 0 | S = 0 | Stoichiometry = C52H41NO4P2Ru | MND = 6
Ru        7.97767796569111    5.00644289076347    3.70865801850308
P        10.15566136757202    5.41582843746043    4.33542986964396
P         5.73916499217524    4.64492702478182    3.29993413867504
O         8.26955557834269    6.48251228846946    1.11882669014477
N         7.74685896375450    4.00769490488782    5.42280137781096
O         9.86317942475968   -0.41448671095915    0.10940040879100
O         9.66251609883152    1.69664485599562   -0.61478878425768
O         7.38853309694053    6.62100504916823    5.09029627286425
C         8.17112740214626    5.90675036141265    2.11624624706431
C         7.96797830891538    2.73393890744450    5.38721553896442
H         7.86819814889918    2.09441449375553    6.26102194904972
C         8.36808237207984    2.18965879865815    4.12073460316967
C         8.47229993526296    3.11968328573334    3.05583879959363
C         8.87458294907612    2.62158322416494    1.82788612223387
H         8.97938579591956    3.27661972979310    0.97566135353447
C         9.16012714543440    1.26701567440959    1.64296099555158
C         9.04295070189768    0.37075644281837    2.70680573646459
H         9.26764485132984   -0.67132820585558    2.53775622753050
C         8.64902923395729    0.83119559158307    3.94142135786256
H         8.55607768369000    0.15177394625146    4.77829361160349
C         9.59292340648734    0.74265497949580    0.33488413698598
C        10.07906773781054    1.25687442415426   -1.89546553866079
H        11.08449287301831    0.83247168829173   -1.84455432671632
H        10.06687345825186    2.13376365740802   -2.53838464883983
H         9.39870987637176    0.49179338511195   -2.27667674967699
C         7.36819748434491    4.73798218828060    6.52569944752569
C         7.15633761689971    4.22909992698956    7.80790009708163
H         7.28763213354119    3.17337924003914    7.99840790469711
C         6.78278756105443    5.06458645274413    8.83349194298773
H         6.62098561853991    4.66642637033565    9.82376936614251
C         6.61286190725648    6.42826689606358    8.59280773625081
H         6.31876818861855    7.07661070953333    9.40654931388870
C         6.81259634863149    6.95746684058060    7.34436600211426
H         6.68215301437984    8.01283146590023    7.15447708551151
C         7.19829294358451    6.13368704340984    6.26214700365784
C        10.75169585635717    7.13415971906794    4.21058224631801
C        12.08897123424443    7.42871416509712    4.46600483569164
H        12.77139710684601    6.63517584108001    4.73835382173076
C        12.53850826113695    8.73162854416111    4.36955170437806
H        13.57589388249201    8.95872963898508    4.56823460356796
C        11.66116964748919    9.74609129382423    4.01727391699585
H        12.01747521540574   10.76299569541607    3.94119059594897
C        10.33092119165720    9.45634441058856    3.76562536402884
H         9.64719669920542   10.24737168516161    3.49467457144280
C         9.87460552471402    8.15284121917863    3.86053991845364
H         8.83355615134949    7.91626060070559    3.68366826685364
C        10.45138773301726    5.03679464890997    6.08756777098557
C        10.32461222356677    6.03184206328255    7.05219216579526
H        10.17469076376227    7.05818277649011    6.74567517203697
C        10.37867087838865    5.70651996406522    8.39533528358604
H        10.27484854023331    6.48213189426570    9.13939778484365
C        10.55003621665767    4.38894610430742    8.78519101106164
H        10.58498671419545    4.13632693898989    9.83457810149513
C        10.66657451033044    3.39228084086998    7.82930025835682
H        10.79381533749935    2.36285638724083    8.13305130813247
C        10.60888779312596    3.70918531337386    6.48503961836377
H        10.67867558893900    2.93106654755088    5.73476226681028
C        11.49582964317443    4.55814561177848    3.44382762926276
C        12.60936924635841    3.98041376465438    4.04150108093284
H        12.73310812096320    4.00894844993963    5.11520481682252
C        13.56942291227047    3.36220418075041    3.25851297674016
H        14.42956933369851    2.90794932462730    3.72899957126390
C        13.43217821538910    3.32318922239184    1.88154471866639
H        14.18039681620303    2.82968057052674    1.27907649115687
C        12.33836336728784    3.92391426912825    1.27905791042675
H        12.23252974738424    3.90639177881303    0.20466927964557
C        11.37832869037446    4.54065592470662    2.05698683419946
H        10.52149859429969    5.01995550485643    1.60255284393019
C         4.77281387503246    6.07199006230939    2.70426347205044
C         5.31020791101757    7.35092270506188    2.79502822983801
H         6.29127799888903    7.48231422173380    3.23285526999456
C         4.58231718526606    8.44105900594306    2.35118874085118
H         5.00223401351457    9.43364080706873    2.42266599245536
C         3.31852300600483    8.25990323461487    1.81489911164788
H         2.75219825998771    9.11028125904495    1.46426992962497
C         2.77731845027215    6.98656435474472    1.72891213097025
H         1.78986528818296    6.84573067907563    1.31378581363146
C         3.49877615092409    5.89373721189219    2.17126776262803
H         3.07833552681813    4.90010478534964    2.10085608520536
C         4.82895857109544    4.16639318501456    4.79834202823983
C         4.20862841798369    5.13665777939994    5.57955327754788
H         4.16176019799786    6.15790942942010    5.22657716145741
C         3.66589157775755    4.79724054992386    6.80545952011175
H         3.19001825636232    5.55536651508911    7.40950665899819
C         3.74419516136598    3.49296093938612    7.26349811770181
H         3.32567643132053    3.23179139471041    8.22409598657630
C         4.36829028411391    2.52414848392191    6.49387450179066
H         4.43501377654644    1.50712316707341    6.85352076167629
C         4.91731342270652    2.85680868144386    5.26981652424812
H         5.42544590581961    2.10723661348447    4.67555793283342
C         5.27622620214073    3.39628442654334    2.05455963185424
C         4.25418069055237    2.46548180293550    2.19820659159558
H         3.65862825194540    2.43951367790632    3.10022629199625
C         3.99233368459137    1.56648821694136    1.17822255464857
H         3.20135203895930    0.84006886096782    1.29768840560856
C         4.73648839195322    1.59434762909715    0.01113621540875
H         4.53320090582507    0.88194031393956   -0.77463836197005
C         5.73504383625628    2.54181854197816   -0.14931353996854
H         6.30940565158432    2.57633264861632   -1.06290045562606
C         5.99970186274403    3.43966132896242    0.86605435667366
H         6.77039486987016    4.19055633194259    0.75471925070746

