52
CSD_code = LIBPEU | q = 0 | S = 0 | Stoichiometry = C20H25F3NNiOP | MND = 4
Ni        3.44968247408909    5.36114539103328   15.04289440685012
P         4.93337470021063    4.98518812193342   13.41823697007415
C         2.31966234312806    5.26096697857449   16.61970930514942
C         3.22239406921722    7.18418657016930   14.91317887491046
F         3.75288211259472    7.70991221177367   13.74484536844325
F         3.90005246333189    7.88448922460481   15.87977584046989
F         1.97080593159372    7.72131878614383   14.91445488913498
N         3.50428430820321    3.45386787081525   15.20800033317208
O         4.96992175008298    3.31573399775162   13.45386970211120
C         1.75930796980653    6.23564966043467   17.44235591258266
H         1.92188631646900    7.28495564409759   17.25075955321835
C         0.97337407499872    5.90278932870811   18.53830018052495
H         0.55615852276999    6.69143849404165   19.14780216429051
C         0.71723586620900    4.58010189463922   18.85242898724920
H         0.09789856772027    4.32826057627293   19.70097183727137
C         1.26968073414529    3.58222012477732   18.07569928105310
H         1.08841070289220    2.54638199902878   18.32355075683518
C         2.06515483621900    3.90740538411128   16.97930868764541
C         2.72146817432305    2.90300539268970   16.15313925360909
C         2.63486774589695    1.51808037940842   16.26411085564266
H         2.00550348358880    1.06778436927665   17.01306048991891
C         3.36781550084876    0.72540742119034   15.39666365710643
H         3.31364095974918   -0.35048072911501   15.46748132686548
C         4.17386468798064    1.30944818564230   14.43522592826478
H         4.76226930862680    0.72915289404731   13.74438591616460
C         4.20774957220242    2.70038587879193   14.37620005153030
C         4.73215580829094    5.15408423946922   11.55471767780786
C         3.20930081293263    5.07990083041047   11.38878031279376
H         2.72785140256291    5.88711376773951   11.94221888283944
H         2.82640309377773    4.12835064096046   11.76156263808148
H         2.92998080112667    5.16873294620525   10.34019593001312
C         5.39144323022483    4.03049048349202   10.75877008206177
H         5.15083099726786    4.15707814862042    9.70384471642837
H         5.02746353343604    3.05581577482076   11.07322455487932
H         6.47208013805917    4.04570742763546   10.86296463240748
C         5.23331464427296    6.50835556546111   11.06547089530053
H         4.87778961999787    6.68203388383266   10.05047091619057
H         6.32028841350592    6.54043072725264   11.04688908348018
H         4.86251802452651    7.31203503647686   11.69529302074825
C         6.68019882739664    5.31785886733712   14.03821885939726
C         6.62472956588659    4.82470356846328   15.49076254365646
H         6.56775813058299    3.73745898167414   15.54037187194649
H         5.74630507236091    5.24905268070968   16.00185830901485
H         7.51266858524777    5.14186508204019   16.03528541307536
C         6.93654616012627    6.82191454828717   14.05195211160449
H         7.88405863646107    7.02743765749132   14.54850670712951
H         6.15047358315232    7.33686592789870   14.59956252337693
H         6.98375738649309    7.23420391989403   13.04903195899359
C         7.76652668100172    4.57946517156255   13.26615480760429
H         7.92498568224254    5.02800406314635   12.28845920121162
H         7.50774658148799    3.53016564402112   13.13767459360107
H         8.70617741067801    4.63427836425052   13.81504722626740

