69
CSD_code = LIBREU | q = 0 | S = 0 | Stoichiometry = C36H30ClPZr | MND = 13
Zr       21.20863718689532    4.45460896979127   11.18614511942393
P        21.42376060760918    2.87628678971542    8.72675669503082
C        20.93935821830121    3.99287552964368    7.34749101534013
C        21.22241216404192    3.79730103707446    6.00045312274415
H        21.74061499535256    2.90690401727766    5.67503961890464
C        20.82727757523823    4.73893993210054    5.06500521958637
H        21.05174331596288    4.57771444902523    4.02057466513328
C        20.14946885834776    5.87931983007352    5.45914475616691
H        19.84778628548646    6.61152439411205    4.72527343656486
C        19.85914207159966    6.07811627324642    6.80048057690539
H        19.32719469514468    6.96510724483212    7.11327712594606
C        20.25512829910697    5.14332207162042    7.73742030620248
H        20.03302623402046    5.28908822921609    8.79799966957233
C        22.06698698243158    1.40274234271325    7.86241794723178
C        23.23735911341986    1.57275682856875    7.12110616541348
H        23.66733653082067    2.56276697571442    7.03675523761081
C        23.84686150963134    0.49055894242866    6.51624312258590
H        24.74472331889057    0.63320741137942    5.93242893315506
C        23.31239062168596   -0.77933205031438    6.67004128986020
H        23.78595251419808   -1.62627278628233    6.19596115943505
C        22.18377893035818   -0.96222372543564    7.45098283029348
H        21.78095706348396   -1.95428167296195    7.59462653398721
C        21.56814911416951    0.11926883468556    8.05649801801303
H        20.69958128336516   -0.03760502011220    8.67812249060650
C        19.73690752846817    2.48175515374465    9.33818753937346
C        18.81657624378199    1.54037284026935    8.68346975840615
C        18.69166048444041    1.49788419551951    7.29661456032560
H        19.27914995158553    2.17080308621977    6.68962222342604
C        17.81452902095149    0.61482883878387    6.69631841865864
H        17.72614778043296    0.59820638687177    5.61965543186986
C        17.05222889051010   -0.24593270220805    7.46816005114320
H        16.36867011347746   -0.93689973036196    6.99738855239912
C        17.17506863185937   -0.21918099129385    8.84759781405860
H        16.58869318204182   -0.89207521226240    9.45635410970717
C        18.04959505543183    0.66330409543354    9.45144933071987
H        18.15199719544574    0.67053701980475   10.52688617496601
C        19.47926262718569    3.23636627640150   10.43513019807335
C        18.11819698400077    3.26748889730764   10.98987768161594
C        17.04866716353879    3.69544036078883   10.19643578795369
H        17.23810176974098    3.97152239643837    9.16690265576982
C        15.76965766566418    3.76769661711996   10.71237189582580
H        14.95701569569971    4.10297664970622   10.08428575593430
C        15.52424268521939    3.40356280693920   12.02628115877731
H        14.52294593580294    3.45370766579389   12.42684204569703
C        16.57241171639913    2.97265903288259   12.82340968846129
H        16.38609649472172    2.68321722760658   13.84801949321831
C        17.85743344395835    2.91560666953693   12.31770867013845
H        18.67103968794459    2.57474424720781   12.94742314171400
C        21.59777960558963    3.23217750512831   13.30143173273119
H        20.98420525204628    3.38741952672939   14.18179577117996
C        22.80348249713405    3.91443482214631   12.99547484741440
H        23.27289343681969    4.68782772875855   13.59456121341074
C        23.40016466769011    3.26384698714112   11.89591175352337
H        24.37097388319008    3.49201488021284   11.47626496798386
C        22.57254343430339    2.19456649916382   11.51494019764325
H        22.81548129862989    1.43524653489216   10.78237392905353
C        21.45535344469384    2.17476502406021   12.37565528849616
H        20.71472116007197    1.38651751041304   12.41294986008981
C        20.73461246568776    6.15325788671465   13.08343337905838
H        21.07571499427489    6.07317816574663   14.10756804151178
C        21.37954791114734    6.86761990370492   12.05615194997830
H        22.32150191431976    7.39584847288741   12.13809911866230
C        20.51828488951706    6.90058725444818   10.94090014071276
H        20.69011866305304    7.46593744564091   10.03290914681052
C        19.35066927039031    6.17915238606117   11.26731927402987
H        18.43961708393667    6.13933300908695   10.68057630094839
C        19.48849241614403    5.71305283307089   12.59802308779715
H        18.70551199381014    5.25174376793204   13.18469654051205
Cl       22.88300627967273    5.41938517962002    9.75372626439726

