68
CSD_code = LIBROE | q = 1 | S = 0 | Stoichiometry = C33H32IrNP(1+) | MND = 8
Ir       -3.10965032186149   -5.06487849268207   -4.86510510397067
H        -3.38339468879321   -4.49051576164474   -6.25453751914230
P        -5.23421035597615   -4.01624405832152   -4.22552669605193
N        -2.46222055679003   -3.22524031073142   -4.17363423162313
C        -1.19296908788570   -4.98183424855993   -5.71834808063563
C        -0.48394759577571   -5.84873599355213   -6.53749901304676
H        -0.90289308876210   -6.78762540679024   -6.85694487011411
C         0.79888264938731   -5.54974319301004   -6.97720085435045
H         1.31885873691010   -6.26161491045599   -7.60073628841059
C         1.41850244651279   -4.35506623060605   -6.63566853270273
H         2.41321063958893   -4.13618983142752   -6.99026476343685
C         0.73909107999863   -3.45390124227087   -5.85101707275834
H         1.18392759746331   -2.50806573182455   -5.58023753324878
C        -0.55236835517843   -3.76081566106101   -5.39755454023210
C        -1.28420411688541   -2.86423227629832   -4.57709038093814
H        -0.85821848756744   -1.90380335159675   -4.30649341709118
C        -3.20111255978875   -2.44883781037450   -3.27525884409318
C        -2.62057512234827   -1.48180159445692   -2.45032677199628
H        -1.55580806644995   -1.30893747327429   -2.46948096994645
C        -3.40055625670519   -0.75479684610296   -1.57206901804816
H        -2.93670288526584   -0.01157901940707   -0.94262690076866
C        -4.76524294859023   -0.98362559348830   -1.48481171586464
H        -5.36873810495023   -0.41261767702367   -0.79694662246487
C        -5.34813290657821   -1.96231629024273   -2.26941150296611
H        -6.40546020769261   -2.16750761357350   -2.17977372934044
C        -4.57592841430653   -2.69841052693390   -3.16015900932639
C        -6.05033426201026   -3.07986788181743   -5.56744619665325
C        -6.19655656076626   -3.69062343102840   -6.81004134860103
H        -5.78337310001353   -4.67591542795849   -6.97471915686539
C        -6.85584022892762   -3.03775753597922   -7.83530899478859
H        -6.96749927186338   -3.51989366588078   -8.79444942378211
C        -7.36814873821772   -1.76701007073714   -7.63123593066838
H        -7.88041919428590   -1.25549053542368   -8.43124311856439
C        -7.21655323904342   -1.15144345635667   -6.39986752328077
H        -7.60887763626988   -0.15876166745336   -6.23920374311451
C        -6.56377549318152   -1.80269239238257   -5.36834424639611
H        -6.44999542934598   -1.30810077512030   -4.41511173410454
C        -6.67766088058313   -4.59917122144769   -3.27810574520897
C        -7.86202442598683   -4.91640075803266   -3.93912405102547
H        -7.94047112352531   -4.76240705811881   -5.00620135394074
C        -8.93934331386701   -5.41648617325143   -3.23005764590700
H        -9.85708795305210   -5.65070264643854   -3.74729554070709
C        -8.84203245687740   -5.61555785796503   -1.86242279054841
H        -9.68391016171153   -6.00460752744322   -1.31139064556032
C        -7.66192919139762   -5.31282678883782   -1.20144085631641
H        -7.58392390315545   -5.46552894745126   -0.13548219677414
C        -6.58116560214130   -4.81362288626925   -1.90409480640448
H        -5.66652200573551   -4.57121735494306   -1.38006788108845
C        -4.40014168240878   -6.88826706997153   -5.16936669670687
H        -5.13376531780790   -6.68964115731155   -5.94832654509844
C        -3.10874253255086   -7.20061165801221   -5.57578924265486
H        -2.94087094428457   -7.22084022925407   -6.64917297704200
C        -2.20977317975579   -8.11207282239237   -4.76159587162496
H        -1.54752443754425   -8.65227198914535   -5.43845488731073
H        -2.84186921313579   -8.85778900374682   -4.27620169008236
C        -1.34055292760599   -7.39089165688428   -3.71532034022283
H        -1.14787084686731   -8.06236300471668   -2.87184223011094
H        -0.37411273179408   -7.15238430760156   -4.16079724389344
C        -1.93389885413633   -6.11511530451285   -3.17631285325623
H        -1.19440980632405   -5.38671863915634   -2.85510500226293
C        -3.21245782391710   -5.98885456161581   -2.71209470338353
H        -3.43182390213626   -5.14913805862309   -2.05943168329476
C        -4.17057638120404   -7.15109783525804   -2.62256233049822
H        -4.85088438443967   -6.97984504920682   -1.78676548436820
H        -3.59150446456089   -8.04579106899315   -2.38621924598118
C        -5.01548517185822   -7.38756879144470   -3.88787133803209
H        -5.20227251539682   -8.46034384322527   -4.00945369584797
H        -5.99065773202041   -6.91557074288618   -3.76213702544870

