67
CSD_code = LIBRIY | q = 0 | S = 0 | Stoichiometry = C30H34ClPZr | MND = 13
Zr        4.61147046825598    4.16077865237825   12.67637527862119
Cl        4.48264767840158    6.50331788172875   12.12812960986352
P         2.45344030779071    5.33695137555704   14.29627998968015
C         1.03975227821794    5.93227571897040   13.20469487653315
H         0.08762855292692    5.65159554203369   13.66897359046617
C         1.11503917661476    7.44621215549320   13.03128942627281
H         2.10395616789361    7.72840695347768   12.67505313807594
H         0.92163600876311    7.96504058958391   13.96659851991168
H         0.37711026216363    7.77978715087911   12.30265675321515
C         1.17279027589968    5.24571086874022   11.84716471640643
H         0.36646503305227    5.56183288892815   11.18562731116426
H         1.13250893520823    4.15913997578380   11.94615641901756
H         2.12461810078380    5.52596098945830   11.38777205925054
C         1.94351724693326    5.87718210135287   16.03251309793162
H         2.37591587355674    5.09235951100914   16.67017997631963
C         2.63426608321073    7.20089723290336   16.36399145508106
H         2.17508940827682    8.02374043069599   15.82221989410023
H         3.68763310626965    7.17081477919169   16.08903022009698
H         2.55986353755082    7.41331052503277   17.42964090238711
C         0.45002049767713    5.95941139190841   16.32498129804701
H         0.30418245748628    6.16617842372695   17.38472068786248
H        -0.05302696501560    5.02420432022205   16.09383851367757
H        -0.01852459333020    6.76279406741065   15.76221455546587
C         2.09714388071140    3.53420747444395   14.30186910291531
C         1.03631813907442    2.89275388716245   15.10662146186247
C        -0.29433749864898    2.87854239142254   14.69706959301432
H        -0.57565350734514    3.36212165405704   13.77242327951044
C        -1.25700549667242    2.24038844315318   15.45783557533149
H        -2.28527250773142    2.23400814980626   15.12574304941933
C        -0.90669522823583    1.60979544563470   16.63945902187088
H        -1.66001981800467    1.11295904759663   17.23264148028693
C         0.41441631639015    1.61469255721925   17.05391257190068
H         0.69458770270897    1.12014959337550   17.97266758463813
C         1.37829402564863    2.24872724700167   16.29259756604858
H         2.41145043570411    2.24759925037921   16.61126699770047
C         2.97540788827368    2.87910141371689   13.51260426950049
C         2.79052327942238    1.43376143270090   13.29418192248012
C         1.64688237433219    0.96119939140830   12.64373639087320
H         0.89324043384233    1.66648870295564   12.32046888474695
C         1.46792431571004   -0.38714887989618   12.40418436614254
H         0.57660990427955   -0.72711058923453   11.89672504444364
C         2.42094711731671   -1.30244788954601   12.81768671554302
H         2.27924749766922   -2.35718524057997   12.63562522112228
C         3.55860614868989   -0.85253754529312   13.46728609462689
H         4.30659325724638   -1.56021765711392   13.79603208886737
C         3.74769733099467    0.49748317168666   13.69444458436054
H         4.64408187157784    0.83234003709891   14.19912843898544
C         6.37264834370515    5.33990456105124   14.19405921578120
H         6.61021722313826    6.39458145139420   14.14687415792983
C         6.98303189984905    4.32328389624606   13.43313392831686
H         7.80534701250059    4.46817673026196   12.74053817668947
C         6.48276209699743    3.07773093096099   13.88936588393904
H         6.86132117603467    2.10055251627173   13.61130733325156
C         5.55417900362520    3.34020357545335   14.92153590494581
H         5.09617120222103    2.60878326505901   15.57417733237073
C         5.48971441677238    4.73668611952180   15.10505623532421
H         4.96215242587825    5.23792957349428   15.90451926811446
C         5.67035029573766    4.22640811935721   10.33392309173431
H         6.34126860183347    5.01244661533599   10.00892936216725
C         6.04707774062895    2.97836752867923   10.86596596366116
H         7.06242315850528    2.62395699151883   10.98802077698266
C         4.88396748921096    2.20791316673296   11.04645210880278
H         4.85187333976291    1.16327475361338   11.32554732333054
C         3.77876089280509    2.97672877156301   10.60486246671469
H         2.76910118570963    2.60702031557936   10.47198280315705
C         4.27242891102860    4.21748980994690   10.15130571462790
H         3.70341582245673    4.98608629250917    9.64322935653462

