80
CSD_code = LIBTUL | q = 0 | S = 0 | Stoichiometry = C22H49N4Si4V | MND = 4
V        10.60514249540960   11.54489858758020    1.62913205010670
Si        8.16727595378831   13.39315582247843    2.20241647769177
Si        7.95167772500209   11.58244025553030   -0.20885264531416
Si       12.91507802280084   11.93729368155961    3.84232500347921
Si       12.30591377743363   13.96813336229503    1.66849692385824
N        11.93537622152066   12.48875760450272    2.51381853346555
N         8.81296606697018   12.14832887438236    1.17985909744995
N        10.14268697899668   10.03959065826787    2.55123433078321
N        11.56614687049549   10.64589315131768    0.35693996282901
C         9.09812613651759   13.47561567457371    3.87535790858920
C         6.33388642083212   13.07318914181831    2.68274967073956
C         8.21365973002505   15.13452877440620    1.39575849132932
C         8.99465945516521   11.82223773518972   -1.80685605448515
C         6.31309576852107   12.47030034778417   -0.63535384544411
C         7.44375360457602    9.74168906116298    0.03917501701494
C        13.75048371867686   13.37411396059090    4.79513135134761
C        11.95528064967448   10.98329289139988    5.19161366138310
C        14.30037259364836   10.74930454108369    3.24447021765565
C        11.86395039099034   15.55636421084389    2.64321511575025
C        14.17431958276344   14.13221229971774    1.22830246508291
C        11.39351280858719   13.96889585232696   -0.01341477703428
C         9.05453391076548   10.10704487621461    3.50734759897804
C         8.38812361781851    8.75091465883290    3.76868175696431
C         9.42514669715214    7.76075306102972    4.28344936787131
C        10.59861489151143    7.80499846922026    3.35553080609871
C        10.83570460790335    8.86538858784591    2.56253877655977
C        10.96147304372414    9.72789311622776   -0.43638536641759
C        11.59761483552874    9.04447909355825   -1.44570570957780
C        12.94687934179521    9.27514081659046   -1.70026469588149
C        13.58697038994544   10.19532752614714   -0.87655279456123
C        12.88527928368361   10.83789726283565    0.11790718944813
H         8.60784567652455   12.86940402380908    4.63131034258005
H        10.12632468615525   13.13650271752102    3.77553033640003
H         9.11024733159530   14.49534723488449    4.24873248374760
H         6.12435334558749   13.44818470879297    3.67962653596416
H         5.65918420916439   13.57733897621517    2.00151174062752
H         6.08611655999716   12.01653906775332    2.66915907196472
H         9.22310707373748   15.51903479464086    1.29943097252130
H         7.77438695274123   15.11702207029922    0.40348816122283
H         7.64462406147465   15.84231568037534    1.99120133490839
H        10.06152327883253   11.70051228377511   -1.64639378653557
H         8.69496039326712   11.11204586074642   -2.57174001829735
H         8.83633270841036   12.81753241546132   -2.21217412503972
H         6.42620598750569   13.54812155280288   -0.64033963526869
H         5.97662483503233   12.17232888824028   -1.62343637883236
H         5.52446410223231   12.22509936813927    0.06515930162969
H         6.42296981543548    9.67781776431383    0.40377770929299
H         7.48769125212162    9.18540607020244   -0.89232829700037
H         8.07732239321431    9.23709684585359    0.76306060394015
H        14.39665991504773   12.98243492605643    5.57413731547093
H        14.35572911925460   14.00360667631037    4.15409354736626
H        13.01066808447184   14.00697577061953    5.27425432722032
H        11.09365945118613   11.53585932323808    5.55198681639031
H        11.63098177789920   10.01133777795790    4.83857859443052
H        12.61096338944308   10.81897807035385    6.04136149020125
H        13.88838591840775    9.90906822982088    2.69329877724055
H        15.02399388948061   11.24477462542137    2.60501398896633
H        14.84154451392598   10.34906163874416    4.09588166361874
H        12.55176800918067   15.70995927556352    3.46713367388527
H        11.93101068058219   16.42682272636413    1.99724772016832
H        10.86154027912525   15.52310784103694    3.05282008386587
H        14.40010847709070   13.72050166372347    0.24906305086218
H        14.46482697989670   15.17757976787253    1.21202977300338
H        14.80967978158977   13.63045217966469    1.94918760853439
H        10.36422650292826   13.63321527128600    0.08742894134857
H        11.37666381604523   14.97089438958514   -0.43307719840247
H        11.89596052511571   13.32827844401938   -0.73694820520644
H        14.63698226786662   10.41235187568918   -1.00295446328675
H         9.92189169310142    9.53728690499099   -0.22111407212033
H        11.04077385600601    8.32822943592588   -2.03042544305207
H         9.41479697737801   10.50724966453733    4.46267241395192
H         8.30839811128158   10.79601685901703    3.09957176647859
H         7.57555521500484    8.88205142992762    4.48514822269156
H         9.72954111159682    8.02563203801654    5.30261790265224
H        11.25468144390102    6.94967777755019    3.32396042166961
H        11.69270311857689    8.82478391098971    1.89742712737030
H         9.00923953727912    6.75094389630312    4.32268879068814
H        13.47109596719050    8.75897915967381   -2.48709939055618
H        13.38161771725002   11.53939239366900    0.76967347085274
H         7.96486161764134    8.37037177493550    2.83679904411179

