48
CSD_code = LIBTIZ | q = 0 | S = 0 | Stoichiometry = C25H20BNbO | MND = 13
Nb        7.87769351634817   11.55315834124628   11.42394655368683
O         8.35050118647635   11.40972348488366    8.35032414020872
C         8.17738538549528   11.46286528312479    9.49639734333504
C         8.28974222102452   13.95651143729106   13.33239848947703
C         7.34187091542931   14.56587655980577   12.49774558058428
C         7.69069684788678   15.10394438615964   11.26353966365128
C         9.00584198895698   15.04014559197689   10.82209974307663
C         9.96449581492947   14.43256910155724   11.62235354249970
C         9.60696208854381   13.89678111581119   12.85501167302229
C         7.49250216929032   11.68916217613383   14.17507907430720
C         8.45500442401500   10.66308260285054   14.15180723751716
C         8.11263180126951    9.33796996711185   13.88317803966348
C         6.79691949196117    9.00217610489403   13.58980737170142
C         5.84036699238693   10.00645175618888   13.51320213923390
C         6.19003568180036   11.33017119127303   13.78204281082350
C         8.98019373430277   13.21321087885824   15.85971616517320
C         9.06950655888502   12.19582382464959   16.80803863003665
C        10.01989398187635   12.22449745092979   17.81258405137302
C        10.89276172324312   13.29470282240332   17.91245171604497
C        10.79556185531252   14.33660792162859   17.00553108211758
C         9.84179914440158   14.29908355220147   16.00462770032311
C         6.62199918088754   13.90316554492822   15.48444399408711
C         6.46737581371540   15.28826547072019   15.47208006677981
C         5.43776724808747   15.90696849927849   16.15759830204690
C         4.54742013772076   15.15276387660180   16.90325902886045
C         4.70612506663521   13.77856337761415   16.96298177419882
C         5.73873302296821   13.16880057742732   16.27369115346633
B         7.85002078539053   13.19459995075213   14.69615169318769
H         6.31728904366043   14.66086379161275   12.84425618159260
H         6.94302690033636   15.60326284668932   10.65981366048195
H         9.28416707837457   15.47546407068434    9.87271560902753
H        10.99790409594041   14.40606105592403   11.29962577026890
H        10.37700285170768   13.46147907784692   13.48463507282872
H         9.47050249562935   10.88967360681227   14.46597663253380
H         8.86415533205803    8.56095191080609   13.95822939399747
H         6.51769752917015    7.96868350513876   13.43704672314086
H         4.80848434045217    9.75424811732268   13.29855099667329
H         5.40827463308836   12.08518944318293   13.80516648635546
H         8.38499034396412   11.35949723487485   16.75956477701273
H        10.07480363272563   11.41360114692927   18.52622249730595
H        11.63087600093750   13.32466815260850   18.70142634571749
H        11.46089558276253   15.18553085049265   17.08454193363714
H         9.76840924371719   15.12943306417501   15.31609454573438
H         7.16399799170656   15.89417130548703   14.90945868168465
H         5.33345763447682   16.98265183740470   16.11766526734166
H         3.74706447808362   15.63354169105999   17.44774847409041
H         4.02736147270919   13.18121111963740   17.55654555766671
H         5.85593053924470   12.09597332299665   16.34912663242354

