119
CSD_code = LIBTIB | q = 0 | S = 0 | Stoichiometry = C52H60O2P2PtSi2 | MND = 4
Pt       16.44031854952857    4.53914727260942    3.46447091973511
P        17.52559502667239    6.05154085637392    4.77245208735914
P        15.16866525019830    3.10413728724126    2.24876629979260
Si       19.19206186178907    0.84811173028601    5.05867579252607
Si       11.37695034090367    7.02544148863306    3.11874458316159
O        11.62029330568422    6.83334204770076    4.70835966193045
O        20.04411236634701    0.95001277452635    3.68320039756764
C        17.93484171127026   10.11916673551767    4.96321986423349
H        18.59655750807442   10.83025593605356    5.43636441104420
C        16.88217927818920   10.56608209133625    4.18003988560253
H        16.72435407201293   11.62579625265795    4.04348190846671
C        16.03736017026086    9.65346169310860    3.57116689311064
H        15.21901791228201    9.99847786644379    2.95656970681005
C        16.24161473663822    8.29704266326122    3.74899844869262
H        15.57793392875022    7.57453804103880    3.29513684301600
C        18.14403371957967    8.76397899040377    5.14051167237756
H        18.97315130404060    8.41874397716677    5.74328716754721
C        17.29060096217701    7.84296656988551    4.53786883927843
C        14.86136016642566    5.34405107276450    0.68636394437452
H        15.40276197695007    5.81591122691410    1.50490552957995
C        14.44670488518947    6.08109395230402   -0.40653095220961
H        14.64425820559397    7.14182207671283   -0.45200637296704
C        13.77808936476412    5.45373019743200   -1.44479974367564
H        13.44375142835225    6.02623316910799   -2.29751405988619
C        13.55439338004290    4.08673923680988   -1.40067971976838
H        13.05522910792371    3.59514249013995   -2.22326281681903
C        13.97249972138473    3.34605043610020   -0.31004718006293
H        13.82810124022405    2.27414517791438   -0.29707758084711
C        14.60438647178867    3.97885664465933    0.75576456320331
C        19.98529130837148    5.77131828690858    6.16220779462377
H        19.40949320957592    5.60355707139518    7.06217120480120
C        21.36904237917769    5.76283241573467    6.21027699526672
H        21.87066438814525    5.58356832796354    7.15016678739071
C        22.10803613510282    5.98385017082306    5.06060831264054
H        23.18716934283082    5.97726500520112    5.10357070493216
C        19.33828452163694    5.99647116325644    4.95407222389624
C        20.08443123749259    6.20532488869815    3.79835166183462
H        19.56674699524283    6.35938406524319    2.86032273236879
C        14.75758495514215    5.37824289721356    4.19239249200245
C        13.84267077845265    5.90798118574780    4.77591889826771
C        12.75292631660412    6.53346800491121    5.51569540303602
C        13.25614400268579    7.84647272214906    6.13032706133194
H        13.59237754082421    8.51414268511803    5.34017746015469
H        14.08841511842359    7.64745808741016    6.80168609693886
H        12.45034846233947    8.32759107749022    6.68025550595103
C        12.53571305979784    8.30756646726253    2.29940785275125
H        12.55481951689458    9.23865627021971    2.85972029183082
H        12.21997471918703    8.54095686178331    1.28726213960812
H        13.55221931540446    7.93064013521002    2.24538046200099
C        21.53176658783012    2.75998594272369    3.16558458985644
H        21.41073302110069    3.20249348688828    4.15105321874578
H        21.74859060003174    3.54924083319012    2.44985295240367
H        22.36162637179430    2.05698815049398    3.19289347447976
C        20.24663986702704    2.02654916570830    2.76702912329303
C        18.13840800828167    3.65158893252082    2.88848938650724
C        19.11127989683639    2.94145590520895    2.80472505229154
C        16.91546049982165    5.72983683758339    6.45423767637597
C        16.64978982496850    6.70337995482085    7.40681717283765
H        16.83920689321570    7.74480504784954    7.18720846734251
C        16.12869291665153    6.33522078640547    8.63639628129518
H        15.91514372000435    7.09337791217560    9.37620319755449
C        15.87297990694562    5.00361920531663    8.91766640429991
H        15.46046661289519    4.72592729707689    9.87662720409907
C        16.13914930405027    4.02878572327581    7.96786751003923
H        15.93723213521940    2.99028634458567    8.18615031554207
C        16.65400766870911    4.39160747128519    6.73916051793992
H        16.86633057206316    3.64290599440500    5.97958005641654
C        15.80207530179668    1.57026636526157    1.49684088000283
C        16.74260294843709    1.69547562125103    0.47896670879569
H        17.07243321464871    2.68201769259589    0.18235617391698
C        15.39630822283718    0.30671901409444    1.90733807323403
H        14.67373876349422    0.20398335700748    2.70505610630211
C        12.49415725041648    2.16127210552680    2.49577392765184
H        12.39593960230362    2.24761828660785    1.42440839145081
C        13.68133069973451    2.51648403680353    3.12363736675634
C        13.78192270646681    2.41789104933233    4.50745015128037
H        14.70430127477440    2.71342126882491    4.99222869769261
C        19.75394360985775   -0.82820189309141    5.75475352148806
H        19.56476335107491   -1.63054457893212    5.05035723594914
H        19.21986319466470   -1.05769653281687    6.66985406690516
H        20.81451728012961   -0.83175581759301    5.98019467439186
C        17.29986969767642    0.82052362975039    4.78727808507361
H        16.96085975165449    1.74638694198503    4.32014746232505
H        16.75391875292699    0.68994105447265    5.71698794516489
H        17.01775282668914    0.00874162377271    4.12280629841639
C        19.58536428136520    2.25599273216096    6.29154367565545
H        20.63714552763691    2.26133397259952    6.56538204642736
H        19.01013009442275    2.17837854260149    7.20894983835571
H        19.36196730326165    3.21968061328702    5.84094814501037
C        11.42154698395912    1.71866706985086    3.24957232191597
H        10.49664254591059    1.45208091555458    2.75876336868568
C        11.52668225193481    1.62154046914668    4.62723058579476
H        10.68359428317387    1.27982198918200    5.20977644809338
C        12.71068600481480    1.96991400018106    5.25653895138067
H        12.79534011422108    1.89931259659738    6.33113191803028
C        16.83594902900629   -0.69040196270961    0.26577519158742
H        17.23504513122590   -1.57114214238828   -0.21548945747221
C        17.24875693144909    0.56929831864897   -0.14059677843565
H        17.96613749467117    0.67056885800371   -0.94207284120609
C        12.28063828700545    5.56648082796729    6.60876794476706
H        11.47641518028920    6.02164796179607    7.18240947982341
H        13.10858086824732    5.32043518638026    7.27038218942231
H        11.91257629779262    4.65354744088956    6.14527919051561
C        11.55116868586351    5.39095366111973    2.15237459575497
H        12.52540506403039    4.94959918946743    2.34168854999486
H        11.45340749261564    5.52942668777342    1.08018725252525
H        10.80293241026597    4.66788892888438    2.46402664367822
C         9.58222617566358    7.64893725804663    3.06488932543510
H         8.90963718890073    6.95977290635818    3.56371795833050
H         9.24824295088609    7.75299828002819    2.03847964784961
H         9.47861984876762    8.61532882549298    3.54633954272679
C        20.38974652428359    1.39885250548057    1.37724391720809
H        21.25155487786261    0.73528856534940    1.35961901050611
H        20.51340599639810    2.17487357267974    0.62542925199758
H        19.49603695364075    0.82222387369061    1.15165603616437
C        21.46408316858058    6.20692308445869    3.85302749648256
H        22.04162604266059    6.37657341735971    2.95626545069913
C        15.91596383316983   -0.81904908562825    1.29215815015944
H        15.59911006264993   -1.80051502167281    1.61432350924054

