79
CSD_code = LIBTEX | q = 0 | S = 0 | Stoichiometry = C24H38N6NiO4P2S4 | MND = 6
Ni       12.21331183186965   13.10109743685313   16.97897276973637
P        11.34415114318743   13.46149969576648   14.43191164575612
S        12.67132802805471   14.79675394375804   15.04061540991213
S         9.67249644304513   10.85045688335680   14.10344674362473
O        11.76982971566316   12.83513739980737   13.03882635492708
O         9.91466605112857   14.05916352173570   14.12829808863796
N        11.10093207791289   12.40360028943164   15.66695401031488
N        10.22668985248903   10.43799686310913   16.59353069186461
H         9.79773400073867    9.55810289249107   16.33328820979086
C        10.39632228077192   11.28598944576782   15.52709931058636
C        13.11134382890150   12.41963558498657   12.74720585993032
H        13.79994591190506   13.11479879789125   13.24964213274687
C        13.33189522402207   11.00460575099275   13.25551723335257
H        13.26297018767965   10.97512617763285   14.34227101353071
H        14.31587535779374   10.65125941622545   12.95923195211557
H        12.57243980396514   10.34447083212034   12.84287509811875
C        13.27306399881362   12.52556532196308   11.23837566329334
H        13.07922038573082   13.54397905721561   10.91021947694719
H        12.56896683939523   11.85854892317346   10.74720802426144
H        14.28482616197100   12.24857907025156   10.95679539971310
C         9.73767994343972   15.00181031823280   13.05670230632700
H        10.72467112463488   15.38812960684949   12.76704576401439
C         8.88141798333173   16.14013511924464   13.58982083657716
H         9.37882973555950   16.61792377699901   14.43059514387029
H         7.92304749167886   15.75098958259929   13.92367838406182
H         8.71737329893475   16.87550562957972   12.80719841142641
C         9.09362754816811   14.28397524057926   11.88242861819247
H         9.71848664733673   13.44999435139734   11.57486090328310
H         8.96785134002227   14.96926276703868   11.04850015713685
H         8.12394981580544   13.89279733750558   12.17994914025861
N        10.89879317413328   11.82320908199140   18.36345153780216
C        10.46078491084957   10.63573291333878   17.92917976226278
C        10.17832810797949    9.58103337894977   18.81353085730783
H         9.84247824758194    8.63277933778862   18.42352843322127
C        10.33672257141533    9.78022631080938   20.16475456870002
H        10.13197653798502    8.98298768400885   20.86347353959868
C        10.75179316015991   11.03003195158510   20.61558969281969
H        10.86694027193311   11.23415756074561   21.66734805657332
C        11.01765318200236   12.00752713489614   19.67877754164749
H        11.33881901177223   12.99613816309562   19.98108432130887
P        14.67131488379772   12.67737389425908   18.02888826223280
S        13.79844100267530   11.22909174155297   16.97978210344451
S        15.03402882604369   15.39908796593136   19.52273987588722
O        15.26700533081441   12.17512303230517   19.39612565714054
O        16.00923832838327   13.23683557527079   17.43746281255772
N        13.45820749804095   13.79607662360238   18.16434810665081
N        12.67896641683199   15.96166564480755   18.61843807825691
H        12.98592540237546   16.85960107049791   18.97286640934549
C        13.65279748092129   14.99876486529763   18.69799740626781
C        14.49022546247200   11.36577226224018   20.28696740148694
H        13.51596813941349   11.15641125046753   19.82047807381585
C        14.28895290758308   12.14316440816592   21.57837264035641
H        13.78558347037023   13.08486636507243   21.37284542950888
H        15.25472045419375   12.36419160815229   22.02519320893161
H        13.69179632085429   11.56155227782066   22.27499530346692
C        15.23757499226486   10.05837037769417   20.50049792921957
H        15.34889771202600    9.54029156667501   19.55100982607368
H        14.68592453641876    9.42483040348336   21.18946952480452
H        16.22467318473647   10.26192437885365   20.90698564702246
C        16.05669313226195   13.95774709146902   16.18826407018610
H        15.06753559392695   14.38661344632328   15.97764423748503
C        17.06882270473544   15.07740031087913   16.36670190033288
H        16.79209561116739   15.69339895416508   17.21847737657188
H        17.09388933124590   15.69501556488375   15.47361807611142
H        18.05568556349067   14.65937150185936   16.54853459863691
C        16.44232248616264   12.99175803347635   15.07867783830132
H        15.71154390327384   12.18860298555429   15.01051102222473
H        17.41742100539799   12.55768608116984   15.28696571003018
H        16.47829075632232   13.52101195634884   14.13023951109230
N        10.89201914412956   14.73338790993522   17.71508883527181
C        11.40728385625350   15.90387941629049   18.10816595913900
C        10.66554780702828   17.09542938913791   18.05861147155865
H        11.12305698605821   18.02122496062843   18.37164724226752
C         9.36889309366852   17.05813673358500   17.60286798340118
H         8.78256925676729   17.96302846346916   17.54416404706232
C         8.82584581006944   15.83290866119460   17.22806287482652
H         7.80820589250591   15.75571205793908   16.88295223779767
C         9.62295905598944   14.71024279680769   17.30272376123996
H         9.23684342946378   13.73943382097118   17.02433448444362

