37
CSD_code = LIBXUP | q = 0 | S = 0 | Stoichiometry = C15H13MoN3O4S | MND = 6
Mo        1.15014616059826    2.20034848561150   10.23192012613880
S         1.37027438375934   -1.72996102983182   12.46483243659735
O        -0.20731813374269    3.24725513855077    9.57839551248835
O         1.91171511861196    3.31647403956437   11.16796183998270
O         1.98773853409164    1.71148229651893    8.90078816106224
O        -0.58987948120005    2.34947357524712   12.38434551359226
N        -0.45652680411767    0.72419889530343   10.11514137399714
N        -0.28064508585729   -0.42465561512691   10.81179947153558
N         1.68227971705283    0.64898818816053   11.44253091853468
C        -1.17880487366555    3.12891342242452    8.69884565175967
C        -1.58150704365839    4.22824197091777    7.93083714988229
C        -2.61274015923894    4.10924358691751    7.02304146425982
C        -3.27993740198503    2.89746020677979    6.86522392638469
C        -2.90678922251596    1.80649443857457    7.61629623359936
C        -1.85342586326577    1.89062668676088    8.53884729369507
C        -1.48005081513275    0.75361136353407    9.31795866046781
C         0.84294569601687   -0.39879472593329   11.47416679015563
C         2.81064702424053    0.41844907312752   12.19845873135778
C         3.88575235272865    1.28940991115510   12.34037681226665
C         4.95017881410949    0.90086556958670   13.13157104395437
C         4.95861094409700   -0.33435698092153   13.77258979846832
C         3.89872415108680   -1.21348013528987   13.63409915767923
C         2.83141858101203   -0.82851600192800   12.84355597756547
C        -0.56526197846738    3.66296348572462   12.92684805179275
H        -1.05143143856317    5.16068838643967    8.06516837320799
H        -2.90500866386515    4.96386531471081    6.43168893743079
H        -4.08712330918026    2.81523869625524    6.15410914238990
H        -3.41718490574189    0.86180452812829    7.49793422237177
H        -2.08526519029500   -0.15017915627706    9.24425680383591
H         3.85092555142674    2.24380556774065   11.82984428738714
H         5.80283756921649   -0.61542000211324   14.38294411086109
H         3.89795204658613   -2.17539501675839   14.12070416115306
H         5.79177462291748    1.56548833115044   13.25159683469535
H        -0.69408908258644    3.63200624429201   14.01291823707569
H         0.41635484127221    4.06779320674618   12.67951837095728
H        -1.34439564648529    4.28726825189680   12.47831340944597
H        -1.45489100925752    1.95969980236527   12.56837101197087

