43
CSD_code = LIBXOL | q = 0 | S = 0 | Stoichiometry = C16H20IrNO5 | MND = 7
Ir       -2.12016238730256    5.83737989140073    9.77076601055768
O        -2.04396161339957    6.62478848044040   11.72668295713433
O        -1.32715233356784    6.10999872173944   13.76624536903635
O        -1.94693981531894    4.39468002388971    8.25197717508686
O        -1.17928667059900    2.34181068266071    7.88377851039375
N        -1.13989632075682    4.45179344479969   10.68134732396787
C        -1.43493103544172    5.88722657432568   12.57770109588025
C        -0.87248619609526    4.59425179216223   11.98038018375503
C        -0.22786737761722    3.59105580869659   12.68735737382841
H        -0.03132070150699    3.74318666899240   13.73700794449077
C         0.13332695467587    2.42824794586232   12.01974114866136
H         0.64672101931384    1.63665210381076   12.54425890765769
C        -0.19123780893072    2.28441268012942   10.67738750259553
H         0.03550608268953    1.39094624416441   10.11737037481724
C        -0.83726596763159    3.32713898699237   10.03180904976523
C        -1.34168408095479    3.31721414025612    8.58742059991608
C        -0.43842174633043    6.93550487347480    9.17859260333016
H         0.42685283468323    6.50770139233507    9.69927997428798
C        -0.65435784539156    8.35969595219567    9.68815726256455
H         0.08509737449746    9.02202502395001    9.23020873800876
H        -0.48085440923341    8.36375551946470   10.76358796754202
C        -2.07978210109553    8.88939738427864    9.43537953092962
H        -2.36389654486097    9.52991135985844   10.26954149898237
H        -2.12317177280341    9.49610560326026    8.53060331524519
C        -3.08809648918613    7.76380870440395    9.32561701439610
H        -3.92014621917267    7.83915223069461   10.02203264831980
C        -3.25375129715441    6.94102144015736    8.22920169916868
H        -4.20066600984946    6.40346915630815    8.17067249310985
C        -2.58414850897031    7.00180834374702    6.87733487243307
H        -2.56645593428896    5.98268083715815    6.48549199233843
H        -3.24002867060392    7.58939608806169    6.22522055795643
C        -1.16790669103626    7.56851573974128    6.78740023300413
H        -1.15670374283564    8.63367381410922    7.00457591756659
H        -0.83694787263415    7.45272774374704    5.75205122795077
C        -0.17114352108081    6.84036284581726    7.68435299360191
H        -0.12954045636691    5.79126268681106    7.38851978459498
H         0.82248525630862    7.26510350654226    7.50300775380926
O        -4.17412216711655    4.80839444790256   10.66929678611682
H        -4.32130468440827    5.19705589104133   11.54013432201238
C        -4.38951707288564    3.41253841009795   10.72696445152366
H        -5.43227364153470    3.19462126207653   10.97375901792522
H        -3.73866741162681    2.92818554573125   11.46206272062380
H        -4.16619240257925    3.01644000671008    9.73782109511623

