47
CSD_code = LICBOP | q = 0 | S = 0 | Stoichiometry = C18H16CdN6O6 | MND = 6
Cd       -1.39049596367140    1.05429204184536    3.43124927838266
O         0.37007719644940   -0.19321980857807    3.91994957895589
O         0.40399677821291    1.99845014707220    3.92699893426659
O        -1.98518988584213    0.12046495388165    5.57502402327424
H        -1.21321905044411   -0.45217849384275    5.68429584678707
H        -2.70184981154877   -0.45361817829924    5.27070146491629
N         8.35800641120044    0.25012254423280    6.45140886236892
N         8.55794726160499    1.37847774936506    5.74971092586674
N         6.44304676179960    0.83915961153435    5.56591383023411
C         7.11045321566814   -0.07559602216958    6.33610409671018
H         6.64700870480015   -0.92107388710201    6.79982272676058
C         7.42516104045790    1.73379862557670    5.23355529907856
H         7.27200440432328    2.58715620562930    4.60675107712886
C         5.09202609805806    0.85308028240412    5.20356651626012
C         4.41308281584232   -0.34791534206044    5.01146503435595
H         4.93435863876670   -1.28570456281720    5.12944314109335
C         3.08059678693559   -0.33174961006425    4.65324275373152
H         2.54079338445750   -1.25330983332418    4.49860094487979
C         2.41596730654607    0.87829077986679    4.47926471721916
C         3.09779047099326    2.07620321758217    4.67138051734118
H         2.56523191095594    3.00432145591027    4.53576385435262
C         4.42894316655256    2.06660602238159    5.03408434498443
H         4.95511146005598    2.99430596856617    5.19964954723889
C         0.98034344846249    0.89566190721763    4.08641368108668
O        -3.15186192660074   -0.19292816987064    2.94340093446970
O        -3.18493063942132    1.99876975036243    2.93521246418046
O        -0.79808653329717    0.11828747992135    1.28793775596134
H        -1.57108739892793   -0.45350351908911    1.18109066599307
H        -0.08150155817524   -0.45645423384637    1.59116669202078
N       -11.13943302065156    0.24941886823237    0.41235400326292
N       -11.33969257504201    1.37760320211670    1.11424781370195
N        -9.22448397619856    0.83927231602169    1.29734536070647
C        -9.89172195179247   -0.07578585163734    0.52736208287424
H        -9.42801716044668   -0.92096201585344    0.06335242226152
C       -10.20691643002549    1.73340631394172    1.63010746528382
H       -10.05392361937867    2.58684185217875    2.25684775958525
C        -7.87344332791454    0.85347768644178    1.65959557013566
C        -7.19436265140188   -0.34745791627328    1.85156310701262
H        -7.71554330120936   -1.28528620525016    1.73348876807747
C        -5.86189476444439   -0.33117030752283    2.20978699298607
H        -5.32192407565909   -1.25268188044945    2.36418900182798
C        -5.19738236231835    0.87892675683085    2.38381546887760
C        -5.87933376219569    2.07678320394441    2.19186479057778
H        -5.34691264533351    3.00496094343208    2.32764529483508
C        -7.21051307248394    2.06706588076677    1.82921724673112
H        -7.73682312537467    2.99473887884546    1.66391512243573
C        -3.76170267225430    0.89615119196894    2.77643221896006

