59
CSD_code = LICCEF | q = 0 | S = 0 | Stoichiometry = C20H26BCrF2NO8 | MND = 6
Cr       -0.79553277900783   -0.13567668152441  -14.55415040524071
O        -0.77340691042360   -3.25344416241168   -9.36781340814033
O        -2.48804353227302    1.60633067926534   -9.59096015742344
O        -3.14127139798854    1.04511504849515  -13.63700280158916
O         0.47326503410254    2.13291808538743  -13.03343132757101
O         1.05575041317023   -2.07809413194988  -13.19906265664947
O        -2.90399688965065   -2.00315811877317  -15.59890583167754
O        -1.81254923687121    1.86230202016498  -16.56749910535745
O         1.42546669573899   -0.48833765476938  -16.57220008206255
C        -1.54341499562397   -2.49697787663830   -9.89701035124267
C        -1.58305800205384   -1.00725322586992   -9.61491718023931
C        -1.55370556045538   -0.19798372721715  -10.92731184142056
C        -2.67406575018882   -0.61066109844353  -11.93161708354840
C        -2.55303367509563   -2.13333383331792  -12.16347078415263
C        -2.59182866778837   -2.96284620023035  -10.88088278933665
C        -0.43090406396164   -0.62037212724055   -8.68927465460524
C        -1.56458512399906    1.30911214597529  -10.61949639864204
C        -2.53338364791571    2.97988962159441   -9.28590792484991
C        -4.05939523145207   -0.25313674707845  -11.33802235535454
C        -6.26784942407356    0.72967710725484  -11.55325586890326
C        -7.00704027380028   -0.29804246696715  -10.70796607075048
C        -5.43798757990677   -0.84616801603893  -13.25816669016659
C        -6.65317124663170   -0.58248456359600  -14.13795138655519
C        -2.32379674822324    0.10649505142371  -13.24743719043799
C         0.05573462573506    1.25689036208942  -13.64662321891642
C         0.24276252298806   -1.37509038484471  -13.61249759051848
C        -2.00301183000016   -1.36650638740127  -15.26415572825446
C        -1.51762223762297    1.12702130202677  -15.74313137503053
C         0.57003428364450   -0.34367710983160  -15.81917040046141
N        -5.08667542973736    0.22573883061282  -12.29384105088883
F        -4.16103251802555    2.46419550985567  -12.07003912152601
F        -5.20496348274950    2.00288091899861  -13.99247109577851
B        -4.36869542898226    1.51700646879577  -13.03702502082342
H        -2.52718235391346   -0.79879506784870   -9.10075503633512
H        -0.60085931423289   -0.40925254607850  -11.42627603002141
H        -3.33879394278767   -2.48307326178092  -12.83329517454641
H        -1.59986835569432   -2.32621006566053  -12.65732940547862
H        -2.41050302998968   -4.01229958804831  -11.11898892535963
H        -3.56564869589707   -2.90042113573810  -10.38816952548373
H        -0.58564553968478    0.36906628193593   -8.27283207045999
H        -0.37025547065415   -1.33649820365719   -7.87353939461562
H         0.51338538541409   -0.64446367088446   -9.22761097688124
H        -0.55906326952930    1.62461318142483  -10.30758413701633
H        -1.81852631354056    1.87997502134933  -11.52246946879307
H        -2.86781988994113    3.56099870669584  -10.15068708860259
H        -3.24418271283678    3.09208542940133   -8.46964313002362
H        -1.54945306891078    3.34352277316679   -8.96834762524274
H        -3.92303969881971    0.54527231797088  -10.60568067886927
H        -4.45992918655613   -1.12866375341471  -10.82385749103183
H        -5.92070325062909    1.54077559186042  -10.91052980199390
H        -6.93920787899194    1.16645549025372  -12.29307803814668
H        -7.32816897878379   -1.15721847258905  -11.29009761879099
H        -7.89480804730935    0.17778376636928  -10.29942174905070
H        -6.40517754403441   -0.64267021808313   -9.87132864887351
H        -5.59521229226374   -1.77136030237830  -12.69423912300900
H        -4.57612422182207   -0.98091639474945  -13.91377249190257
H        -6.56480536546334    0.36536898705328  -14.65733714615266
H        -7.58263642178713   -0.59756268431197  -13.57564859766975
H        -6.69936245221693   -1.37184082005666  -14.88461167753578

