60
CSD_code = LICCOP | q = 0 | S = 0 | Stoichiometry = C25H28IrNO4S | MND = 7
Ir        1.83564628585892    4.53729609787033    2.46022349924160
N         2.11667008737099    3.50282133968855    4.06170924805219
C         2.60844308085736    2.14584322340456    3.95103882757316
C         2.45188210213929    1.70174354676119    2.46440528795478
O         2.20545431517795    2.68131786005069    1.66833310073817
O         2.59590269321705    0.55100291278697    2.12828502624812
C         2.41465580823834    6.42680833572213    1.52433648900729
C         1.56460541727970    5.71071008175862    0.62299406029621
C         0.30588957534396    5.53279385591904    1.26616116663195
C         0.34195928854281    6.23447929663717    2.53817994751228
C         1.63638398675662    6.77638137710937    2.69805572661734
C         3.79355979250336    6.91894301510605    1.22070884760271
C         1.88584707852394    5.27668226752568   -0.77408560280923
C        -0.89703874333068    4.90636403753539    0.64540568821004
C        -0.79766722026703    6.46192920330418    3.46634869654786
C         2.03187239947795    7.69949014005370    3.80158290787651
S         1.79017738235056    3.95270624537055    5.61090231418361
O         1.17907583439487    5.25919228858960    5.52914714242683
O         1.06757474226328    2.92343336606646    6.30362170372475
C         3.40484551841943    4.13017045089250    6.35454427627834
C         4.21927613612634    5.16534064197839    5.94031559641994
C         5.50388399782573    5.25853729123782    6.44117247308420
C         5.98105308401791    4.31682124135537    7.34866157987955
C         5.13789099152035    3.29220111931626    7.76201429220477
C         3.84980745739022    3.19556057062749    7.26590880685134
C         7.39129662705769    4.39588893455358    7.84437957381222
C         4.08048212604848    2.03944696040072    4.25420446021422
C         4.96381561330026    2.97925595183546    3.73709633378806
C         6.31820723540714    2.88487077632736    3.99311311945416
C         6.80692606503849    1.83968485642970    4.75892108359007
C         5.93502938129427    0.88669950904506    5.25620634868830
C         4.57806729513519    0.98312734909435    5.00516135368198
H         2.03232615023552    1.49251358950249    4.61737318146896
H         4.32559229733727    6.21708106413443    0.58307854072135
H         3.73359917508429    7.87760606294402    0.70248560346244
H         4.36831892494744    7.06132582115956    2.13257965759584
H         2.85165119902165    5.66102528468062   -1.08808246316066
H         1.90963719069635    4.19005924864906   -0.83891714013459
H         1.12401679043719    5.64448017218187   -1.46014133987805
H        -0.60243860976378    4.11854616732099   -0.04282371607363
H        -1.54977846195477    4.48023115603023    1.40287145934093
H        -1.46039362934926    5.65888824023358    0.09047856849144
H        -0.50473920136881    6.17479422959812    4.47511147599491
H        -1.05408997433361    7.52195126945189    3.47722759944240
H        -1.67287086022206    5.89145433631387    3.17095186678301
H         1.74839208476915    7.26183034557803    4.75732255152648
H         3.09966507018036    7.90077298459180    3.79426978432820
H         1.50284548520305    8.64694558017267    3.69120122969895
H         3.83258797433960    5.87958002567759    5.23150336551852
H         6.15097974215185    6.06277320772729    6.12210801167873
H         5.49527402940462    2.56013306357215    8.47078431551630
H         3.17926853203422    2.40776884469505    7.57006564187691
H         7.51670644001838    3.82170264049273    8.75849604377806
H         8.06526320122602    3.98785992631216    7.09065734902101
H         7.68132557773191    5.42796883598990    8.03021226145439
H         4.57352806423931    3.78841808349253    3.12852040800915
H         6.99525175663684    3.62384660102458    3.58958014396014
H         7.86571632896717    1.76267786607726    4.95854444415293
H         6.31368632188031    0.06283665766911    5.84295092197166
H         3.89950296495230    0.23648455026310    5.38863685783214

