47
CSD_code = LICDOQ | q = 0 | S = 0 | Stoichiometry = C12H21B9NO3Re | MND = 8
Re       -0.28220307644056   -0.32656194840397    9.80310397826009
C         0.54648347767567    0.10627358726002    7.43465553967290
H         0.72879737501893   -0.90978789273693    7.09095071858081
C         1.54002297721139    0.69584860295566    8.43614490932510
H         2.40059996797246    0.08328893557132    8.70310359814939
B         0.80054696447423    1.75686277242888    9.56855726731533
H         1.37081115112347    1.98706106608992   10.58301467561860
B        -0.89817862962095    1.88419527535654    9.13832302614596
H        -1.78778614627136    2.22023836752259    9.84067728125616
B        -1.02268682932687    0.62398053241538    7.79895949071105
H        -1.93342386478191   -0.05711207810300    7.47061031268907
B         1.61043890966391    1.27383688771317    6.79769360037396
H         2.49585581412809    0.89998123620138    6.11995413689150
B         1.78853152646694    2.34712333585245    8.18395593652441
H         2.84697908053535    2.79580096423326    8.43940359480965
B         0.22422563073466    3.11882293929632    8.52362359025905
H         0.15677186475285    4.21651274605953    8.94435110302152
B        -0.98045970387619    2.37416534638495    7.44025041924703
H        -1.93552136107370    2.93769684801361    7.04177111093567
B        -0.09443720038325    1.24733867961311    6.37899234973621
H        -0.44391003082519    0.87587824141384    5.31750322144824
B         0.67214311226983    2.77799591001317    6.84990531739332
H         0.88443220902151    3.64202108768465    6.07923905099632
N        -1.94983853137827   -0.52348854777445   10.29728969994487
O        -3.04987668551743   -0.57951604221418   10.70736639276282
C         0.97488085632719   -0.44023823811905   11.29392072771387
O         1.58327696707994   -0.53514771570984   12.26631153911244
C         0.14259835159915   -2.32885234189395    9.53689474953390
O         1.26462818875038   -2.53706154997389    8.87375225903884
C         1.94008234934430   -3.79506489879161    8.85292267343338
H         3.00373240922733   -3.57562165104246    8.94965691874173
H         1.76542745137684   -4.29593707756247    7.89861219558446
H         1.61269612183567   -4.43437331503713    9.67318418806712
C        -0.65198818210868   -3.44790097487005   10.02422720864148
C        -0.97314343913473   -4.53599059791654    9.20491330160754
H        -0.62408662199664   -4.56372912837154    8.18313838102061
C        -1.79152207161393   -5.54904260669003    9.66525911991802
H        -2.04218057306621   -6.36693639818549    9.00532961234690
C        -2.29405712300315   -5.53091432211933   10.95919136578666
C        -1.97308122488147   -4.44864276398742   11.77840988219271
H        -2.36270880915583   -4.41584185290519   12.78472259758728
C        -1.18542486008775   -3.41705403110344   11.32186413887406
H        -0.95033366105879   -2.57640810368878   11.95946650564354
C        -3.17020293170952   -6.62904823860194   11.47184751901151
H        -3.31641227891875   -7.39945276812053   10.71950179773202
H        -4.14254517888253   -6.22970907633463   11.75629418728084
H        -2.72855374147671   -7.08338920182643   12.35767880906326

