58
CSD_code = LICJEM | q = 0 | S = 0 | Stoichiometry = C20H28BClN6OW | MND = 7
W         8.73776834118706    1.59071989542187    0.04297067461715
Cl        8.99511345772355    3.98738051685450    0.13421570375333
O        11.81854560083646    1.19958966782253    0.00283805484640
N         8.20030804461442   -0.43776954151995   -0.54836543372881
N         7.14245463435231   -0.66706126678713   -1.34913886414693
N         6.61308235016160    2.01833411071145   -0.08841028314459
N         5.82825555595894    1.41389900660374   -0.99824305639142
N         8.57733148871895    1.79457314376978   -2.11760552189774
N         7.51930028599865    1.29923762011465   -2.79344796477991
C        10.67067177942087    1.35367773164972   -0.07331636031794
C        10.74407140466741    1.26161753643532    2.87884963260069
H        11.05542459339523    2.29734014797468    3.02482206202188
H        11.59243523546992    0.72318859185170    2.45699012381777
H        10.49216492882005    0.82781698017820    3.84877643871957
C         9.57020933904478    1.22881552651335    1.96885345997887
C         8.27339140608555    1.05911411879130    2.01407683029132
C         7.25403082662713    0.66399648363559    3.02473632808509
H         7.34617675609269   -0.40638830311613    3.22348023646476
H         6.23893452992759    0.85824172248243    2.68051197143792
H         7.41586646112033    1.19721585969441    3.96390788592829
C         9.80598633857046   -1.77089081096637    0.80118479065861
H        10.09677419334790   -2.81725740971670    0.85175805970080
H         9.57143421613636   -1.42119169996927    1.80687312731459
H        10.64148057874008   -1.18120091937244    0.42627484062286
C         8.63243018595896   -1.61905477883673   -0.09759173673395
C         7.82483330150533   -2.62905607838255   -0.62370885424156
H         7.91314114877818   -3.68232508916669   -0.45177910533151
C         6.89211389570590   -1.98814987177048   -1.41839343355865
C         5.79711050204090   -2.58614096045592   -2.22509734690926
H         4.83169248459396   -2.18689202493926   -1.91988209944672
H         5.79266158072617   -3.66373734407609   -2.08672907988918
H         5.93324510000868   -2.36774512234701   -3.28275694851500
C         6.31494662990626    3.66637285242170    1.77011890543980
H         5.59337748062064    3.65144898908505    2.58601623893338
H         6.41210331881677    4.69394387480223    1.41903023955234
H         7.28925914766190    3.34429209829837    2.13763177968198
C         5.83854155811789    2.80072630582513    0.65693309327847
C         4.51412393657295    2.68910178963655    0.21623165444003
H         3.65770370116734    3.19334000470172    0.61583766725202
C         4.54626460927089    1.80192985506476   -0.83980403728801
C         3.41988014395285    1.32024122820845   -1.68152715341346
H         2.49165170391305    1.76112559382582   -1.32802414431006
H         3.33600952034964    0.23575933074407   -1.63300896024230
H         3.56708169515613    1.60154070501255   -2.72298946634035
C        10.63044064881201    3.10921901950706   -2.63848541028720
H        10.99086361251264    3.68573754343856   -3.48676315991788
H        11.38720092265084    2.37506620282728   -2.36621864353568
H        10.48241714391417    3.77363476364080   -1.78686188622577
C         9.35651584247785    2.43722603832238   -2.99545033854240
C         8.77360412963332    2.35464123437339   -4.26010934744559
H         9.14910367487174    2.77244895393109   -5.17177044542059
C         7.60997111376314    1.62371482263759   -4.09339578787973
C         6.60755518274675    1.23613467796731   -5.11912925074387
H         6.91360097505515    1.62118362445505   -6.08788845395052
H         5.62831065707646    1.64206167180741   -4.87194028380929
H         6.51896852242672    0.15300431569553   -5.18141492594791
B         6.43251695056511    0.49577202197065   -2.05895937773435
H         5.61464663165637    0.10123504271534   -2.80851263736981

