87
CSD_code = LICLOB | q = 0 | S = 0 | Stoichiometry = C44H37BrO2P2Pd | MND = 4
C         9.16078805673108   10.50675035320884   22.33013043333323
C         9.41400268825341   11.69539401846456   21.64442850759350
H         9.04946651342678   11.80504066335985   20.61565249781491
C        10.12989369184089   12.70865504308414   22.24941939838101
H        10.32984165229622   13.62709862908178   21.71679315882037
C        10.60684825055229   12.53465458204278   23.54004142784564
H        11.17782033181213   13.32025788044030   24.01224603409863
C        10.36930999403327   11.35093519402856   24.21714085848886
H        10.75708737354108   11.21370604946304   25.21584669677718
C         9.64683487130530   10.33286452917322   23.61751701995587
H         9.48172963805050    9.40151406237680   24.13957693011263
C         8.50245185466945    7.65625153343830   22.15684448082858
C         7.98523825286119    7.35461865935021   23.41409101490043
H         7.40073684704212    8.09341347498479   23.94677258551572
C         8.20803852424132    6.10641889859471   23.96379298384732
H         7.81284139639566    5.87160894578486   24.94158094920684
C         8.93396024096579    5.15512995693162   23.26262999245811
H         9.10584839304832    4.18246702576368   23.69962450514584
C         9.43065595978405    5.44576914874749   22.00310879702244
H         9.98890028892212    4.70147080172750   21.45502044567509
C         9.21249087417008    6.69370460456535   21.44801064189205
H         9.60229743084127    6.93313599698508   20.46178491124925
C         6.49923965769894    9.61627132841312   21.80581824433600
C         6.08182836140380   10.84059059164591   22.31250675383439
H         6.81257534891079   11.59385116722239   22.57524284039466
C         4.73190913116217   11.09346127596809   22.48234845197004
H         4.41143981322936   12.04597969272685   22.87905800771908
C         3.79410496525829   10.13519352992603   22.13875206556292
H         2.74123932388967   10.34080162518239   22.26265371128238
C         4.20604573539655    8.91219269818558   21.63271954739099
H         3.47564093160126    8.16373561073570   21.36284793335870
C         5.55132363726072    8.65425021241995   21.46472021777829
H         5.88208333498960    7.70461447269362   21.06254961112424
C         8.05972888846149    9.76349349389493   15.84699183857889
C         7.28521191538975   10.91328804674848   15.71209535497078
H         7.56690758218712   11.80858476416702   16.25327567253493
C         6.16748376537019   10.90694335187666   14.90215335660366
H         5.56793539732899   11.80042683787135   14.80542025193564
C         5.80720040534610    9.75238907359365   14.22550869475231
H         4.92080983853659    9.73987526433272   13.61148052050949
C         6.57476269188262    8.60821095750162   14.35612882569448
H         6.29227055241114    7.70721429585178   13.83199823931791
C         7.69591444383828    8.60767009568801   15.16689133040334
H         8.28990225711835    7.70939927724583   15.27315347598282
C        10.41730099271384    8.35523750122046   16.62974315577482
C        10.08447164072363    7.17608979375527   17.29727213795582
H         9.26278455540721    7.18852865076736   18.02414118644543
C        10.79319634165728    6.01629671093347   17.05653455625278
H        10.53773098490458    5.10424584140306   17.57629439625539
C        11.84666954887541    6.03167825806385   16.15479922464244
H        12.41053275150599    5.12902863481139   15.97181993225287
C        12.18816630248344    7.20362057532870   15.50199352769613
H        13.01953965890375    7.21425030608563   14.81251381066456
C        11.47708198600398    8.36887665236404   15.73501234676295
H        11.75844246133954    9.28706980213333   15.24002274369371
C        10.31747403408535   11.28445223641490   16.62092247391020
C        10.54074870648863   11.63021956418540   15.29068096679604
H        10.15492969012913   11.00079959771456   14.49949386149338
C        11.23710537946940   12.78596653319452   14.99185078223923
H        11.41612785733718   13.05384118322860   13.96055473266580
C        11.70252218203983   13.60308299647291   16.01121948549599
H        12.24756252194134   14.50391414364491   15.77013895770136
C        11.46303887506648   13.27217969250040   17.33439928245817
H        11.81937274987499   13.91333614435841   18.12694711342046
C        10.76777094083917   12.11624835381063   17.64004584642443
H        10.57836947712855   11.84580286662970   18.67608426234040
C         6.97296298180433    9.72114331158210   18.73959722195526
C         6.33394969840198   10.94705149205097   18.85808632368237
H         6.86767223684904   11.81392656269392   19.24257116989173
C         5.00937890558679   11.09041479897200   18.48626714725235
H         4.50261318795947   12.03981545168662   18.57490347437681
C         4.31820871953364    9.99577120140111   17.99013906864510
C         4.93585345758228    8.76194732825142   17.87513697884402
H         4.38964336303862    7.91468189626580   17.49003596354656
C         6.26260095785876    8.63525385503558   18.25100804407801
H         6.74035543032398    7.66233534313951   18.15332885077731
C         2.47198290802296    9.72079238439814   16.51712517767901
C         0.99193525625753   10.00580552513083   16.44373008080022
H         0.64409310438368    9.86659791384845   15.42488884402767
H         0.79004630561967   11.01794555407623   16.78260410083584
H         0.46808472261393    9.31404689850100   17.10054391699918
O         2.96985146990014   10.18563445614730   17.66915479357299
O         3.10646921307690    9.16164569432557   15.66356816547066
P         8.23290262588961    9.26903725080557   21.37769053921343
P         9.39816509987938    9.79136049290363   17.07593283840522
Br       11.22188154579234    9.27245429458914   19.86231644014793
Pd        8.86686806758848    9.52317453968825   19.24071685950531

