37
CSD_code = LICMIU | q = 0 | S = 0 | Stoichiometry = C16H13ClN2O4Pt | MND = 4
C         1.23852444746193    8.18358347224095   -0.76553369000627
H         1.12230353178562    8.55519084683119   -1.77295740806268
C         1.80856763352708    8.89719217619822    0.32369974038622
C         2.28498967671971   10.27859224375243    0.21478748610261
C         2.68779037382402   10.92989410506090    1.38573600081954
H         2.63376933661202   10.39204862175697    2.31994247588141
C         3.13857269116179   12.23327316711117    1.34288310677566
H         3.44392604847392   12.72750457565706    2.25261093591542
C         3.19841320954279   12.90593028833057    0.13198980511903
H         3.55092229783930   13.92577972444659    0.09622750286130
C         2.80692029469660   12.26779440283972   -1.03518955744652
H         2.85833004815407   12.79112167371898   -1.97812931976129
C         2.35168404915842   10.96394952995121   -1.00079414256049
H         2.06094774067437   10.48183960411793   -1.91989184309335
C        -0.26990651752945    3.99352451403244    2.14998913446830
H        -0.34838627574109    4.45971076106026    3.12460884533161
C        -0.76317690155617    2.58117346084115    1.98229530000632
C         0.30607576927738    1.58532483588406    1.78138571432909
C        -0.05019993656504    0.31673944550792    1.32084689569245
H        -1.09206752330943    0.11280142181500    1.12515962596491
C         0.91945205017964   -0.64337260969757    1.11268400823838
H         0.64205339622257   -1.62115052956303    0.74834626359801
C         2.24937414528618   -0.35038392276829    1.37391136592329
H         3.00822172182423   -1.10192872805795    1.21338002623821
C         2.60805596196773    0.90377926848809    1.84434451578632
H         3.64368406657677    1.12488500335760    2.05410450142510
C         1.64551280571097    1.87432660528516    2.04703584132915
H         1.93220844186339    2.84457217815901    2.42705118264746
N         0.86228402479205    6.95231721813758   -0.48238786933563
N         0.26740034880926    4.65911044269768    1.20285355827738
O         0.41101975617001    6.18170895062550   -1.38251637716754
O         1.91027802128279    8.29892660931831    1.43419530683290
O         0.35089945458203    4.03945836580894   -0.00589876272044
H         0.36826843025425    4.77747650449914   -0.72474515114272
O        -1.94064552313351    2.31748552919701    2.02555308581903
Cl        1.62386963193668    6.00731126172037    3.51639156841964
Pt        1.11626327146304    6.42610898164082    1.37323032710584

