85
CSD_code = LICPUL | q = 0 | S = 0 | Stoichiometry = C36H44Cl2N2Pd | MND = 4
C         3.55986897084772    6.12326563837348    6.12767575992488
H         3.24743317809946    6.49208108789066    5.14895510623445
C         5.00066806537703    6.50441979468048    6.38769442850702
C         5.61882791047270    7.71952073105282    6.49150192531476
H         5.07729188636907    8.64495331897314    6.36298462323487
C         6.99965645346019    7.74582177843817    6.77573894898211
H         7.48193652269272    8.70830886735047    6.86238000734634
C         7.74314844285242    6.60467787415269    6.94131417245503
H         8.79975935323093    6.66913128872385    7.15503403713939
C         7.13575891472412    5.33549045953777    6.82465333783591
C         5.76043284717067    5.33543567107880    6.55191144701278
C         2.26870560416534    8.05218601685928    6.97752022287502
C         1.44099673427501    8.42875139534384    5.91200269869336
C         1.13293937404200    9.77447125600842    5.76178613748734
H         0.51679293246020   10.08869479461904    4.93440316925382
C         1.57847975674559   10.71413111800539    6.66703215962057
H         1.32199576066601   11.75494710762108    6.53865311274897
C         2.32484881529743   10.31843944828158    7.76076133118850
H         2.62255027815522   11.06025117334427    8.48272631134392
C         2.69290879761912    8.99272967648719    7.93225491175293
C         0.81774471165764    7.42931173393012    4.95950397175159
H         1.00837381165672    6.40824194011974    5.33149696720863
C         1.38516555459931    7.57669987950052    3.54409245719225
H         1.09253491005002    8.53557804753790    3.12272941332861
H         0.99756034784129    6.79052130948897    2.89959550361497
H         2.47380118818034    7.52931060171193    3.52853780772253
C        -0.70689563489187    7.57581969687106    4.92877638998113
H        -1.10423664438093    7.45246823164768    5.93336182161897
H        -1.13385758505960    6.80493362195912    4.29044557021850
H        -1.01334023114730    8.54533441958898    4.54679674354201
C         3.48100986374874    8.55938904636738    9.15681197331010
H         4.24607886564755    7.82737379202571    8.85680084535315
C         2.53353774408686    7.91579657353704   10.18060470844929
H         1.81538396128146    8.65503819337246   10.52643334253127
H         3.09606614363953    7.54963475966365   11.03785105406542
H         1.95424994618281    7.08379541495009    9.76185499593973
C         4.25194188731137    9.69901911890183    9.82458580704700
H         4.85788101567873   10.23625667616588    9.09800984067203
H         4.91438637636301    9.28908730141317   10.58469213770051
H         3.57907876252277   10.39807696427976   10.31360042080114
Cl       -0.41291361696958    3.78670095626817    8.34615838811230
N         2.65137056977870    6.68048938166917    7.14425648414740
H         3.12579545706652    6.60380523332978    8.04468350183883
Pd        1.04903856575510    5.33569290176273    7.67681107381414
C         3.55984679716448    4.54742315962339    6.12783150501683
H         3.24747193726078    4.17851334130010    5.14912369628434
C         5.00070075818609    4.16639728192827    6.38785272646237
C         5.61894231560205    2.95134291351225    6.49177091064880
H         5.07746858381052    2.02586224389659    6.36333324934200
C         6.99977855127529    2.92514993042208    6.77600250343633
H         7.48211806611589    1.96269927572514    6.86273020757145
C         7.74321379549573    4.06635017552768    6.94145034780303
H         8.79983125723604    4.00197828141000    7.15516508575653
C         2.26863182375715    2.61855799569169    6.97763393700888
C         1.44094609250174    2.24202791371366    5.91207569521865
C         1.13284806941251    0.89631684444780    5.76182506198085
H         0.51670152138135    0.58212948470579    4.93442561122376
C         1.57836557829488   -0.04338222640540    6.66704274868923
H         1.32184645850918   -1.08418752682489    6.53863759039584
C         2.32475263273242    0.35226124736631    7.76077947820244
H         2.62243415399224   -0.38957877860136    8.48272513926676
C         2.69285480833718    1.67795768368747    7.93230795424976
C         0.81777588908887    3.24148849661825    4.95953883722023
H         1.00847993147808    4.26257076157163    5.33145413538486
C         1.38515972977263    3.09406056617032    3.54411774121849
H         1.09249634534033    2.13517207881762    3.12280286341113
H         0.99754624911695    3.88022571646206    2.89960845081728
H         2.47379669494932    3.14143228366032    3.52852642931184
C        -0.70687689845261    3.09509819629898    4.92895013961202
H        -1.10414264988239    3.21851591721659    5.93357793435453
H        -1.13380405201627    3.86599522107980    4.29060796105531
H        -1.01340474814159    2.12559619921050    4.54699459488080
C         3.48101040662342    2.11123762061521    9.15684838254270
H         4.24607020174681    2.84326678705620    8.85684536107145
C         2.53355860643384    2.75480705845526   10.18067013674743
H         1.81540497607952    2.01556054938878   10.52649801168807
H         3.09611245282896    3.12094224008743   11.03791098364475
H         1.95427262750977    3.58682505095116    9.76194504087432
C         4.25193302906370    0.97155814949752    9.82455428164158
H         4.85783901172609    0.43432798337103    9.09794322753843
H         4.91440833780738    1.38144864488524   10.58465597913690
H         3.57906791800359    0.27249854270997   10.31356754387153
N         2.65129113397425    3.99026107938570    7.14443769258137
H         3.12579464783771    4.06687095708711    8.04483644657053
Cl       -0.41309961127552    6.88343636539773    8.34661930734516

