56
CSD_code = LICPET | q = 0 | S = 0 | Stoichiometry = C23H24MnN3O4S | MND = 5
Mn       -2.62008649782532    7.18804296647415    8.85157402781878
N        -1.17361214631374    6.13019248667860    8.87584714096377
C        -0.21181568129850    5.43042597468763    8.89283391593908
S         1.06091289141565    4.50448611308124    8.91482032522661
C        -2.32018376830986    9.17238651654791    6.77493778466012
C        -2.77433220633276    8.35870558462828    5.70378811670310
C        -1.86807048108337   10.46941735002040    6.46278008613496
H        -1.52227615684217   11.09092730283690    7.27576622893840
C        -2.75547881976362    8.84937201179330    4.39401546611971
H        -3.10738307597899    8.20751069521576    3.60109429955333
C        -1.85352605098942   10.92759886300575    5.16636371614112
H        -1.49435148512331   11.92442882246338    4.95624330761992
C        -2.29726287705295   10.11822931218602    4.12376124957371
H        -2.28239318101476   10.48602695437194    3.10950104940808
C        -3.28585216564589    7.04144796821392    5.98006881165532
C        -3.96114125185676    5.16400562706630    6.98553917153610
H        -4.88039526215695    5.21311326294248    7.58158002108762
C        -4.26646966525426    5.09907469469714    5.47466325103710
H        -3.68776063963880    4.31794045525518    4.97029804979107
H        -5.32717388053498    4.96513339099330    5.25005809887393
O        -3.85311310156400    6.36031911230960    4.96466535104933
N        -3.28013626373013    6.44909991601398    7.12780611657482
O        -2.30533682280177    8.78193030673529    8.02221553179992
O        -4.06227472787154    6.41906187351184    9.66142165959236
N        -2.15470861420686    8.06968900340870   10.57181710578705
O        -2.29624191823049    8.68287762930380   12.72109732301874
C        -2.74876026832554    7.91702055557200   11.70851261000700
C        -4.46722000516651    6.33568676713818   10.90133748458916
C        -5.42297879383469    6.07351284930178   13.53602115146101
H        -5.79267111123104    5.96575423054709   14.54396619742652
C        -5.57197923342796    5.51537383519769   11.20257480647900
H        -6.03955439829777    4.98194978741735   10.38794341229052
C        -3.85518551695162    7.03490058375535   11.97473944445436
C        -1.13963147763408    9.11045100429523   10.71955185278357
H        -1.44943331335802    9.96008059163227   10.09920844453760
C        -1.20751411747649    9.44985620147876   12.22302669918790
H        -0.30041700685513    9.14526722574985   12.75576016749388
H        -1.40693370456462   10.50521969503120   12.42273499430579
C        -6.03412345404540    5.38526259302670   12.49110590037420
H        -6.87886230390305    4.74304614700118   12.69320875235755
C        -4.34758246199411    6.89141859491401   13.27611279695593
H        -3.86194444724535    7.43636618256563   14.07093012655433
C        -3.12440756290089    3.98906154588789    7.49079894392331
H        -2.82733637362811    4.20748327952908    8.51963808009746
H        -2.21758901687956    3.90464133871115    6.88831649494653
C         0.24568866654277    8.65957538756260   10.25742761566444
H         0.15308809289124    8.28866564956284    9.23359304435695
H         0.58638054313903    7.83419883526575   10.88601030256694
C        -3.90812173786537    2.68295875897072    7.45398575928178
H        -4.21789248751188    2.43590624296719    6.44080611421987
H        -4.79673195292110    2.75525095206984    8.07667699104921
H        -3.29188584263876    1.87132657671729    7.83101100459041
C         1.25111380907666    9.80377240663027   10.29489848608307
H         0.93021146768478   10.61304245521265    9.64324230992055
H         2.22163034216045    9.45451301430909    9.95326364503183
H         1.36400751716283   10.19829251764080   11.30243916043397

