75
CSD_code = LICRIB | q = 0 | S = 0 | Stoichiometry = C38H30N2NiO2P2 | MND = 4
Ni       14.34920380992196   12.02879904416435    7.11887004889723
P        12.52514595103300   12.69012561813418    8.25229187390591
P        16.30726556454166   12.90474452892904    7.77865219299168
O        14.71270499158840    9.81700288465000    7.09889166974800
O        13.80680593626103   12.36429679363984    4.97023226264966
N        14.27572882657886   10.53375046466148    8.04883821463581
N        14.39078450416224   13.15836391318862    5.76763410555373
C        12.82515815154089   12.23341625279270    9.99425071964112
C        13.47706557468658   11.01335818074384   10.26674801127042
C        13.63327055948465   10.63057383780366   11.60093713044190
H        14.12096264876081    9.69132464068491   11.81878737751293
C        13.19716424322803   11.43499373599975   12.63433149795763
H        13.33873755510806   11.12040793620413   13.65785245219074
C        12.57921880596672   12.64399195167854   12.35802070065973
H        12.23546466280697   13.27836730040605   13.16163554792672
C        12.38994392494692   13.03215484892652   11.04301564279525
H        11.89591950917600   13.96968972400384   10.82776238878564
C        13.98365077615933   10.13253882923939    9.23594593845022
H        14.17062384660530    9.09435419790107    9.49799437047494
C        11.05206283459880   11.67767630853761    7.91138230441881
C        11.03429231603908   10.94693088587211    6.72823730589887
H        11.87545368351467   11.01216806600618    6.04602048260125
C         9.94779033626963   10.14261237586130    6.43229305005041
H         9.93342538265327    9.57317767715265    5.51499649021172
C         8.88405466095376   10.06603727095543    7.31567661171052
H         8.03636612083181    9.43663680735232    7.08692727289119
C         8.90366882400314   10.79093270164805    8.49821714029096
H         8.07310081812004   10.72451666557372    9.18623754183786
C         9.98580389040515   11.59509634938961    8.80197153185996
H        10.01087426233442   12.15686776374201    9.72595871231082
C        11.91043294471410   14.39821127946122    8.33349182182160
C        12.81986248987356   15.37897269455374    8.72849810047443
H        13.81093818352395   15.08311958329724    9.04856583205112
C        12.46477321544206   16.71235994217220    8.70522893645362
H        13.17622304882024   17.46415420783292    9.01423971567720
C        11.20038006474115   17.08189065171769    8.27155171220630
H        10.92126326779279   18.12489680380932    8.24708782721491
C        10.29980379678354   16.11423885931649    7.85884429596109
H         9.31860500533251   16.40337488831362    7.51133026660278
C        10.65171270425831   14.77559443310848    7.88065491256102
H         9.95139185738805   14.02362316641641    7.54597216824814
C        16.15301679855693   14.71257227049141    7.57754841708336
C        15.44160016772413   15.20851148476437    6.46580979463313
C        15.39478871341873   16.59157367360941    6.27456376446435
H        14.86100730779920   16.98033957768123    5.41932168551791
C        15.99647084263528   17.46023658480211    7.16248004450728
H        15.93721911011225   18.52591159180829    6.99681655619634
C        16.67502861996713   16.96496293531121    8.26443809084231
H        17.14878209161614   17.63879568851382    8.96287474280520
C        16.75595510078383   15.59741340678336    8.46138542481128
H        17.29573634066424   15.21103330260150    9.31502490329559
C        14.76613330585264   14.36115365074601    5.50643492505696
H        14.52381728191792   14.78414379948854    4.53490337099205
C        17.67847206729921   12.57808233110447    6.62782439597983
C        17.52616426847697   11.53033819459896    5.72616824034889
H        16.61992511504296   10.93387359960131    5.74617492991105
C        18.52912020357968   11.25732903048951    4.81256782404621
H        18.41158398461408   10.44519570106920    4.11074926135308
C        19.67871710449976   12.02923828947113    4.79762098018171
H        20.46129327378589   11.81874712707111    4.08326636011963
C        19.82916849471854   13.07699150244536    5.69427676842598
H        20.72665153185376   13.67848696049977    5.67631238642919
C        18.83142219834916   13.35731194064993    6.60842069255897
H        18.93913678765249   14.17727728107895    7.30548539359392
C        17.02463933439064   12.68988307122100    9.43370500774674
C        16.23898473183262   13.06449003974007   10.52333952242923
H        15.28661667334119   13.54843382409615   10.34824623968641
C        16.66632330647897   12.81565122819498   11.81180590168143
H        16.05105560659117   13.11099829627241   12.64903250595352
C        17.87732401941005   12.17470256487984   12.02570613577182
H        18.21138761618678   11.97360401301430   13.03282452771385
C        18.65278148871752   11.78237997317562   10.94750526307231
H        19.59145782253660   11.27421770551623   11.11414192123333
C        18.22824692617608   12.02999203248765    9.65354833299346
H        18.82897221249163   11.71138326092899    8.81349950868942

