102
CSD_code = LICSIA | q = 0 | S = 0 | Stoichiometry = C40H55ClIrN5 | MND = 6
Ir       -0.62635643728625    4.28908967221583    6.22121462272348
Cl        0.96739965029850    2.76598530620549    7.08016097924087
N         0.48375997952904    5.92627677793441    8.58140964186942
N         1.60741968575237    6.25752276259937    6.80337455609266
N         1.54830128222408    6.67192141317230    8.94238626529684
N         3.92892082634296    3.09543128178591    1.89027633085373
N         4.62458720761932    4.64379331038697    3.52514391157701
C         0.48081651295662    5.63986574724234    7.26707907286161
C         2.21828292659337    6.85803110497490    7.85692242783861
H         3.13085132308762    7.41280175161772    7.80301200906666
C        -0.33888426989152    5.41659726478986    9.67383323874390
C        -0.57302616907160    6.54249629791108   10.68535113386477
H        -1.12313726583886    7.35651070793912   10.20672512156881
H         0.38728599543092    6.93425278341382   11.02106862667961
C         0.44619257826346    4.28188585054673   10.34409760926520
H         0.62975169989313    3.49195199698439    9.61331747378023
H         1.41199490752188    4.66577027170859   10.67959206554124
C        -1.68372947502355    4.89226015236269    9.18712125350335
H        -2.24438821927300    5.69617702915376    8.70957230000590
H        -1.52000877574970    4.09707402797444    8.45408119107783
C        -1.36721684556793    5.99558912968442   11.87159052932795
H        -1.53141861187611    6.80303954196391   12.59374412896016
C        -0.58346290475571    4.86584072213960   12.53830303438091
H         0.37512794754951    5.24234405281461   12.90123779265405
H        -1.14120691618136    4.48511324690041   13.39669058885869
C        -0.35173147915249    3.74329865319006   11.52768127707470
H         0.21268934051923    2.93349343439112   12.00152336599167
C        -1.69350174647313    3.20851135284905   11.03122301342357
H        -1.52500767762371    2.40707556999931   10.30942428673931
H        -2.26492810726149    2.79662016939896   11.86586009862808
C        -2.47510770130012    4.34385511294482   10.37366294842847
H        -3.43862730042836    3.96551796280406   10.01422210470277
C        -2.71419399858757    5.46211541456668   11.38694835261740
H        -3.29109529346351    6.26700223061053   10.92531889020513
H        -3.28955752369767    5.08121990592293   12.23330521933318
C         2.14918706583652    6.16100162821348    5.46279332176152
H         1.35356236806609    5.73370096120865    4.84302850724107
C         2.52615461300531    7.55411123448678    4.92497599411693
H         3.32387126679365    7.96363548518559    5.55421140728199
C         3.05047011872644    7.44812559631492    3.49554119146157
H         2.31806655705977    6.95581601274091    2.85819041401179
H         3.97532778413153    6.88097981172030    3.45650114943259
H         3.24404267710498    8.43814875195543    3.09176209305005
C         1.32303314510291    8.50905936803621    4.98571582552489
H         0.66465631066692    8.30493611147086    4.13850718109727
H         0.75133094102087    8.33089449924461    5.89955508944090
C         1.73647795291773    9.97619870573508    4.96175226590309
H         2.36654195384690   10.20938323939987    5.81764799722251
H         0.85694845617370   10.61434553533904    5.00253498215313
H         2.28646191844487   10.21587305871522    4.05562848230147
C         3.33096851680753    5.17162771816418    5.49698768336163
H         4.25921718581152    5.68502362795340    5.74996006248180
H         3.11419841209514    4.42472375316628    6.26643548410270
C         3.50864874166300    4.42913715498771    4.20650610062418
C         2.54431998017594    3.53486716421175    3.75729348726858
H         1.65083382301537    3.34953945077811    4.33102174132798
C         2.81150710038954    2.86636672932991    2.56817175743941
C         4.79351449802092    3.97185057183616    2.38783853461270
C         1.84777581225349    1.88942092730528    1.96988621088413
H         1.18529372557308    1.50206212372814    2.74536591534497
H         2.40700048843981    1.06131286362496    1.53226281475828
C         1.02409168198622    2.57143129043474    0.87192681622723
H         1.70392559695198    2.94759308470445    0.10485938805734
H         0.49769722879805    3.42999980364781    1.29727722120683
C         0.01532839945586    1.61480201841572    0.24240780181765
H         0.54913235221678    0.78042719076873   -0.21720200865121
H        -0.63016255348341    1.20198293978629    1.02212214646764
C        -0.84173417872608    2.31039300095820   -0.80812789965326
H        -1.54920399005468    1.61180240101304   -1.24882503104060
H        -0.21754143186453    2.71421145307248   -1.60215775601009
H        -1.40168315100032    3.13099513790015   -0.36352880766728
C         6.02212114024711    4.22071987760450    1.62892452657319
C         6.26065318171418    3.53624534836123    0.43898679560175
H         5.52651687473788    2.82400653457661    0.09662644948693
C         7.41815130851889    3.77170654114711   -0.27709205234959
H         7.60043085688947    3.23777923709961   -1.19856662243492
C         8.34725516023593    4.69094181750303    0.18440375080245
H         9.25219904614508    4.87339661422263   -0.37699159646102
C         8.11536987387961    5.37511756620665    1.36722296578785
H         8.84072074317014    6.09080396377970    1.72659991905701
C         6.95991505002218    5.14311174605478    2.08795657283202
H         6.76628692752191    5.66464147226361    3.01220117690685
C        -1.31565387503988    2.84390612161035    4.74370340121520
H        -0.50719362602018    2.13611817064201    4.57977791451418
C        -2.04658649608211    2.70889735271845    5.90948208380224
H        -1.77873965600342    1.89618071208374    6.58239953544369
C        -3.45283094956730    3.22493350640206    6.10450540529623
H        -4.14953734679459    2.59283866849705    5.54326356185604
H        -3.70809293201055    3.12302907941891    7.16115088021396
C        -3.62419970007529    4.69897944703617    5.68878985626375
H        -4.39041728412310    5.15231875684453    6.32039352692060
H        -3.97943508467135    4.76522347584743    4.65900284829580
C        -2.33989821484819    5.49315502974953    5.82212745915968
H        -2.41854698974839    6.34067447306799    6.49944305395164
C        -1.40395373347433    5.63195214132681    4.77770423069555
H        -0.87716468967623    6.58424814342688    4.73152817741007
C        -1.53799701009100    4.98465100570771    3.41582071366870
H        -0.58933994878530    5.11506301146502    2.88753621629518
H        -2.30250988912811    5.51217245295244    2.83442611129857
C        -1.86924227455292    3.48407994089051    3.49082286808490
H        -2.94916809110404    3.33320610453759    3.46071938372624
H        -1.45096888374655    2.98328927030343    2.61682785833307

