75
CSD_code = LICWEA | q = 0 | S = 0 | Stoichiometry = C32H28CoF6N3O5 | MND = 6
Co        9.31387864793516    3.68698801320547    5.51424312426297
F         7.44048624649013    0.32741510291243    2.13424430995176
F         8.19336131584244   -0.67132829647842    3.88154504301190
F         9.54695904205893    0.36794054504417    2.57314238616955
F         9.90917170235434    5.73934025489917   10.05628225097780
F         9.50619198731918    7.03867948001241    8.38910604570203
F         7.87967454567113    6.16810314899048    9.49815592776887
O        13.81057752602669    5.23023841928162    3.93453391939432
O         7.38596760584089    3.88305610981450    5.60910979632907
O         9.16447799492767    2.41820426300327    4.12055281156147
O         9.03333030363664    2.25905785048119    6.68929703947496
O         9.42581701771308    4.93924383213613    6.86827839899679
N        11.18044243160747    3.48684568700602    5.37473983464400
N        13.03861819697561    4.45813583399909    4.57974773200048
N         9.52902537079085    5.10948868763485    4.28223784844323
C        11.71937166111656    4.47311082760079    4.63224483170610
C        12.26447375023108    2.83202730980333    6.10471285229644
C        13.51873580690202    3.23288370101042    5.25861404925143
C        12.04377776366133    1.32248851900751    6.17949363177897
H        12.93346587746868    0.82887023630017    6.56195006521870
H        11.79311484049776    0.92063923863905    5.20367798107383
H        11.21607906650131    1.11463594229195    6.85053009592558
C        12.33174702372002    3.39751635155111    7.53262884423228
H        11.40795622822510    3.16128117357917    8.05495051587489
H        12.44236894333859    4.47947433192668    7.51142471610887
H        13.15670697531850    2.95831163562019    8.08618987935964
C        13.82835366038879    2.24209089924880    4.13117626974832
H        14.25865802142373    1.32548781357106    4.52284323223270
H        14.54517280521415    2.70564531894013    3.45578328608482
H        12.92740315738937    2.00909605434987    3.56903550018741
C        14.79325913195295    3.54290286666128    6.02978294519191
H        15.54055541117628    3.89663528534146    5.32277364971693
H        15.16627629448763    2.64964137789368    6.52304474722500
H        14.63724760370945    4.32463030999670    6.76647102056408
C        10.82021869708440    5.37575258849517    3.98767146459433
C        11.18964443434235    6.42040921346058    3.13761489424640
H        12.24083078695299    6.57473556109316    2.94659059055259
C        10.19936832568028    7.20512662956919    2.58996755486279
H        10.44625378743232    8.02351641497629    1.93127006128914
C         8.86966169511085    6.92917479507696    2.90555231051654
H         8.06764256173515    7.52663424372529    2.50308372679625
C         8.58273110732346    5.87675540311181    3.75300376807207
H         7.56279834200051    5.64557359536249    4.02608544480711
C         4.96493332706130    3.86258676947929    6.95384991576651
H         5.82914191014514    4.22120000423111    7.49340126005580
C         3.69200474825066    4.04976186515710    7.45582060780087
H         3.55536193885318    4.56106910465866    8.39679730198597
C         2.59379236853441    3.58607604643807    6.74906406044376
H         1.59762600091892    3.73578835973899    7.13770634169270
C         2.77430373561894    2.93802208765047    5.53716387128865
H         1.91787511396964    2.58927246804066    4.97953004911058
C         4.04641402534413    2.73923461518378    5.03373949129230
H         4.17463619829750    2.25567693377996    4.07770242520415
C         5.15618832997925    3.19506362488946    5.74325433921595
C         6.54004409290554    3.01652713220419    5.25448711702693
C         6.85288721467671    1.89967634734764    4.44839224653705
H         6.09740972487784    1.16462072591465    4.23260308008052
C         8.13249200512943    1.70913810188903    3.96435926395997
C         8.33917374969947    0.43481091677393    3.12812872122538
C         8.47003675308429   -0.13948790363090    7.82307419766056
H         8.97833943134862   -0.09402527778019    6.87193912810248
C         8.06352203689584   -1.35246537971506    8.34162846992302
H         8.26010916333768   -2.26182547237256    7.79440304753653
C         7.40291374992222   -1.39911637308329    9.55894744361145
H         7.08471417393539   -2.34626440660941    9.96799058401266
C         7.14477596254068   -0.22451963357714   10.24753539506931
H         6.61943431192993   -0.25678633978996   11.19041877978642
C         7.55216872961865    0.99289781635795    9.73499648395646
H         7.32081112971164    1.89395956164896   10.27977801249073
C         8.22984717416283    1.04971686236190    8.51694864634726
C         8.67581996862797    2.31750457748053    7.90020178498591
C         8.70833150564535    3.51456195553640    8.65192997892563
H         8.45641006952456    3.51537293550196    9.69727401562741
C         9.09317103359992    4.70364497626019    8.06465906993703
C         9.10465662626962    5.92545042788448    8.99519047112796

