85
CSD_code = LICYIH | q = 1 | S = 0 | Stoichiometry = C39H42FeNP2(1+) | MND = 8
Fe       -0.00080557020966    0.21945521975869   10.73304375285799
P        -1.60206468613097    1.49596007567215   10.05413894022264
P        -1.34460309758205   -1.44343034066023   10.53255326755270
C         1.60934035679236   -0.70177961418302    9.68227989533736
H         1.61384941018476   -1.63020300710295    9.13586909666926
C        -3.14291889893211    0.49173401370607    9.82424413889846
H        -4.03300257356722    1.08309328733352   10.05586423460950
H        -3.20073539855979    0.18467613719063    8.77614579011439
C        -1.75381975704043    1.93660915033390    7.24972471900408
H        -2.24125076992964    0.97858183346778    7.14471481061486
C        -1.83001984371559   -4.03819870162997   13.68970756461211
H        -2.52171903142203   -4.22178228582785   14.49837387568822
C        -0.05971372013642   -3.57876537167448   11.61618677458670
H         0.62231036060726   -3.38980177681507   10.79742980279434
C        -0.49893982129933    4.40212153180199    7.45286601417383
H        -0.01061570950894    5.36130993330925    7.53459027072641
C         1.50487555132777   -1.03541290606623   15.95626619653329
H         1.37248799827003   -0.92540202216924   17.03427693212978
H         2.42805796467977   -1.59136339276761   15.78829851133494
C        -2.09636801672248    2.84045864030692   11.17782044695520
C        -0.70893293335862   -4.83782827578887   13.54607446878144
H        -0.52798109154395   -5.64275028001752   14.24137305673460
C        -1.56725408511233   -3.54458094204670    6.45999657907053
H        -1.62567992343408   -4.02061252407541    5.49341166521296
C        -3.27800176155049    3.55162732463602   10.98862795521467
H        -3.93648060611807    3.30276493972640   10.16775720055765
N        -0.78325341047121    0.26746171444618   13.57990028736852
C        -0.85858781992950    3.90837202935526    6.20871356318163
H        -0.65054534009282    4.48099874658606    5.31827938472483
C         1.36048337424646    0.57030105218600    9.13670800548633
H         1.19221808356273    0.79952109447761    8.09818785430951
C        -1.40512243934455    2.42981251825144    8.50304383134272
C        -1.41389006338736   -2.32911824589567    8.94768419061830
C         1.60596165324840    0.34235180935135   15.30971558396196
H         2.44580908521478    0.89532844902156   15.73225913665469
H         1.78358081169252    0.21945877537686   14.23883757620561
C         1.94915093468286    0.85063145165647   11.33071012916920
H         2.25617217416034    1.30859841687013   12.25587797312864
C        -1.54965911333423    4.25639823767484   13.04290817705059
H        -0.87207292581592    4.54309409803424   13.83339492156911
C        -2.74120904694895    4.94176542416572   12.87026582284232
H        -2.99644475099133    5.75553191888215   13.53135194235554
C         1.94080572566420   -0.53945191215283   11.05192870530876
H         2.27549911682192   -1.31722654853698   11.71715496990452
C        -1.19582956246351   -2.77982951787751   11.74545344128678
C         0.18242764079930   -4.60312073053246   12.50984154109294
H         1.06045810324337   -5.22134764839184   12.40063180818488
C        -1.22571984089952    3.21161605051482   12.19632324557772
H        -0.29411712582799    2.67307340119308   12.30639113163938
C        -2.07163788053484   -3.00322008496395   12.80136099843320
H        -2.94416799229227   -2.38025567062694   12.93071367138533
C        -1.48641110361110    2.67811658807481    6.11189758284527
H        -1.76956143545296    2.29081914072249    5.14464953701583
C        -0.97406298620619   -1.03174893597858   15.59672335189614
H        -1.15392357453551   -0.91463448022540   16.66621161688579
H        -1.81500517587234   -1.57746178636603   15.16677554961525
C        -1.14584238247255   -2.22789181576493    6.55900495558462
H        -0.87497952343744   -1.67679353453640    5.67074917648143
C        -0.76615283718006    3.66672222419574    8.59118888319326
H        -0.49368177543190    4.05528022384138    9.56333414293271
C        -3.59939407839504    4.59361011741461   11.83886367981802
H        -4.51808436064463    5.14122962839418   11.69322868033135
C        -0.55913332324502    0.26847020223340   12.43700587359195
C        -1.90778197644251   -4.25323829742579    7.60161123408092
H        -2.23190293172128   -5.27972489253529    7.52247589108996
C         0.32291936508009   -1.80300248907120   15.37257977023951
H         0.47384456174008   -1.95297681859797   14.29994422601841
H         0.24560371950105   -2.78618707166965   15.83790088704221
C        -0.89271173305534    0.36600766222549   14.97295343713533
H        -1.81399692018555    0.92517012410166   15.18470319599240
C         0.31819578571388    1.13320923203548   15.52156650660635
H         0.38463310584027    2.10668497710939   15.03127010370154
H         0.15847772078973    1.30004802177164   16.58750852309291
C        -4.17316505287700   -1.75507589228084   10.33775868574705
H        -4.06954699395112   -2.68111399212693   10.89919263515960
H        -4.13512414770044   -1.99733192197013    9.27707271617919
H        -5.15185437900048   -1.33099450452030   10.55551785209118
C        -1.06547941296181   -1.62448403575831    7.80008064350240
H        -0.72081374591545   -0.60407071952462    7.89941819325367
C         1.57378306694930    1.53555339922421   10.16143552360878
H         1.56869055069590    2.60333219441780   10.02326317377103
C        -3.07465508479963   -0.76129273734262   10.70034043381487
H        -3.16158326513261   -0.45722590558304   11.75346026267853
C        -1.83499592835231   -3.65206256625871    8.84540217918366
H        -2.09862748472102   -4.20736681369767    9.73403704200282

