111
CSD_code = LIDFIP | q = 0 | S = 0 | Stoichiometry = C54H44Cl4N4P2RuS2 | MND = 6
Ru       13.98071703926911   12.14127962894839    1.66375118056024
S        14.59241384237377   13.35570955429321   -0.40470766498163
S        16.41457968537959   11.70475644348812    1.54283398175510
Cl       11.56500723237261   12.34304656850535    1.39315014790743
Cl       13.65602145959734   11.23519063459613    3.90388132800883
Cl       18.44204651123531   16.28359024333065   -5.15637124500523
Cl       22.70425247365325   11.35137146006590   -0.97650440971885
P        13.71544491465902   10.10024132538866    0.59279586921454
P        14.22530917727948   14.18422273223437    2.73768038728014
N        12.03693243474015   13.42808229968800   -1.29503270610903
H        11.67084957144856   12.99771836670500   -0.41305340452604
N        13.47576701901111   14.31052380528397   -2.67660461447539
N        16.57416022146856   11.04957059394667    4.16429295299402
H        15.53601088777821   11.11462458172093    4.28837284208303
N        18.49580922427056   11.02326380360092    3.13259235942664
C        13.33759451487018   13.71644142614599   -1.45643543121098
C        11.34315750099602   13.83031376088088   -2.39959420521087
H        10.28412239299319   13.70132474191490   -2.47665034638507
C        12.22827849960849   14.36977704077557   -3.26531584450379
H        12.08378523684279   14.81808959734362   -4.22556706810666
C        14.66468181749714   14.77766311359662   -3.25579853747862
C        15.59422602415495   15.47737355617480   -2.49346342260120
H        15.39899090140326   15.66393520084839   -1.45013898401749
C        16.75850068438914   15.93703269398490   -3.07753316625117
H        17.48297784286028   16.47884289395250   -2.49092043143477
C        16.98968654872423   15.70470419212919   -4.42511942117325
C        16.06469984541518   15.01557208270561   -5.19496388254015
H        16.25632804587724   14.84011959274274   -6.24169772290179
C        14.90368463214998   14.55127369638045   -4.60787179362343
H        14.18656226257204   13.99863120803802   -5.19502430395332
C        17.15770216023380   11.23214371047761    2.96953901071749
C        17.52541649167543   10.72801021027055    5.08885917533516
H        17.27417046969742   10.53248669551806    6.11005687980130
C        18.72082231658849   10.71890493760123    4.46043838674263
H        19.70098476282087   10.49267548624585    4.82384014358900
C        19.48786794289653   11.10447168969751    2.14438649339555
C        19.27006663959373   10.56870214464142    0.87922256386512
H        18.33217335081288   10.08698656883606    0.65635543549906
C        20.25847682482770   10.64843736437133   -0.08227760333075
H        20.09505124326990   10.23565193918648   -1.06482049862106
C        21.46702617337959   11.25639716700500    0.22306766574563
C        21.69594926945981   11.78613074210382    1.48413432848885
H        22.63945078010412   12.25763816237338    1.70894720589889
C        20.70435581486873   11.71061439539788    2.44286133437756
H        20.86708455445756   12.13542680693594    3.42140837438301
C        12.36886950950233    8.92419776836782    0.95260096877213
C        11.55327775606641    9.06828634330133    2.06556413085077
H        11.67482154985501    9.91822273072774    2.72078031368441
C        10.57972274884489    8.12212463507825    2.33870875065906
H         9.94383113498234    8.24283108228447    3.20342354189636
C        10.42352928150290    7.02670873144836    1.50884185164887
H         9.66266672965147    6.28957016935555    1.72148217973303
C        11.24904067687804    6.86942870693235    0.40514177342190
H        11.13431728608201    6.00885610772434   -0.23867678499331
C        12.22142071875564    7.80923635142638    0.12919508642940
H        12.87124771609831    7.68690601202985   -0.72758920885852
C        15.08677930187056    8.90910056888617    0.79556241493565
C        15.40635045411433    8.61713849119004    2.12049928580333
H        14.82503797260784    9.07419603135500    2.91258547527602
C        16.45441707273055    7.76944622494608    2.41865616662052
H        16.70338165319467    7.55916879862553    3.44929885277984
C        17.18789368967042    7.19268757021078    1.39317979196879
H        18.01701013678746    6.53837306268338    1.62079638291505
C        16.85009472636913    7.44999233322748    0.07580727408372
H        17.40939139333956    6.98672113840961   -0.72485054586709
C        15.80084903213092    8.30200270479415   -0.22791820946670
H        15.54722845506304    8.49022340230682   -1.26134264499318
C        13.56484795591781   10.33838846293749   -1.20339567633651
C        12.32343055074922   10.31530039283296   -1.83128859324264
H        11.44253476566814   10.04360455171152   -1.26565942499282
C        12.21654060264355   10.64775262645073   -3.17032237932061
H        11.25062460169832   10.62128281694604   -3.65420597550047
C        13.34101062125173   11.02162624227342   -3.88737427756188
H        13.25309139532163   11.27711802608084   -4.93395984660971
C        14.57576767567228   11.07824192953246   -3.26047375286342
H        15.45074864710593   11.39465326232694   -3.81069090197981
C        14.68764174439255   10.74939027625742   -1.92241936350602
H        15.64215046889699   10.83358288382768   -1.41816300144977
C        13.17556909217062   14.74195192600010    4.12047416320571
C        11.99829766761581   14.08499834258153    4.44815297923049
H        11.70739611173529   13.19395313794095    3.91162516731519
C        11.19362708203793   14.56991004313065    5.46534492881858
H        10.28137609643158   14.05060496752973    5.71981706511421
C        11.55620467060921   15.71475307852111    6.15140745983229
H        10.92948269361477   16.09128853989238    6.94692485556938
C        12.72252737531683   16.38566730869234    5.81380769219187
H        13.00135419326665   17.28623004042944    6.34242003724705
C        13.52706746372992   15.90728176229162    4.79946527332186
H        14.43408295096835   16.43196383167653    4.52866051048108
C        15.90393234229014   14.35039802727317    3.41630391677564
C        16.16196529609288   14.13243109931683    4.76603073810668
H        15.33922463438068   13.96863215954014    5.44868308417089
C        17.46573846170238   14.11696456467245    5.22993438616752
H        17.65939949258433   13.95487257844007    6.28071741024683
C        18.52033009902435   14.30026288115624    4.35095074876586
H        19.53681425445344   14.29147310059132    4.71851061023331
C        18.27260670538373   14.48440812307397    2.99977413921839
H        19.09463108409359   14.60082448041028    2.30758525299272
C        16.97220240898703   14.49872165630864    2.53096751554568
H        16.77591699531632   14.59886108986904    1.47080365894193
C        13.99372278481749   15.66784950681241    1.69510814861382
C        12.76726905929863   15.72506891205296    1.03535599678342
H        12.04641420444380   14.93301892595465    1.19964083413119
C        12.48058946050483   16.76777182550866    0.17706792233997
H        11.53168545490804   16.79697113934927   -0.33985302191555
C        13.41346725298024   17.77384368624939   -0.02157435987147
H        13.19905873087281   18.58616711852085   -0.70087159737035
C        14.61755739606925   17.74071385190054    0.66030852856924
H        15.33853984306254   18.53385084524880    0.52062773686963
C        14.91043577779952   16.69515458045247    1.52053897764078
H        15.85344759855909   16.68521157199336    2.04809424769210

