65
CSD_code = LIDGIQ | q = 0 | S = 0 | Stoichiometry = C25H30IrN3O6 | MND = 6
Ir        8.52117161293777    2.40406879038850    2.80312681000503
N         6.59667604858999    3.46139530899305    2.98907529972426
C         6.70687560148213    4.31478227991795    6.51075778966500
O         8.16957265031957    1.36811904032196    4.55259309645482
O         7.56072866971150    0.94280728078681    1.73868155156300
O         9.43374816779261    3.91039147293099    3.88182473537972
O         8.85967886500584    3.43809384056678    1.07152598298539
O        11.79908399370336    2.89166857036803    1.50800946743247
O        10.04396022210101   -0.84906271154487    1.73661729798030
C         7.68704050071279    0.19640834332540    4.60642591092972
C         7.59903653496702   -0.41049242811554    5.98946906444593
H         7.88464423433113    0.32596142158485    6.73593429162301
H         8.27220794339797   -1.26267759922392    6.05190136154598
H         6.58798606386573   -0.75734188494132    6.18721329158531
C         7.23782743858501   -0.57503870393716    3.54148051468568
H         6.89659042659043   -1.57274724749831    3.76599588193523
C         7.22196717182502   -0.17960072614636    2.19887333308692
C         6.76399841289805   -1.19669426836240    1.18485463898196
H         6.46551458179774   -0.69922405144118    0.26627753910297
H         5.95207302313769   -1.80728211510915    1.56781052847644
H         7.61918738387210   -1.83692471776121    0.97073529766334
C         9.91540988364557    4.97152437292406    3.37984628343924
C        10.49571822963364    5.95673177938165    4.37071632154774
H        10.31394143712013    5.61219165331639    5.38526533808684
H        10.04642397993871    6.93717069569940    4.23356675419877
H        11.56759842185172    6.04531740050152    4.20926534235201
C         9.97509414786047    5.30698345869461    2.03411265475157
H        10.47200508138763    6.22850864114214    1.77664654580985
C         9.50622847937199    4.51336563954417    0.97940079495253
C         9.79833614251244    4.99228888115145   -0.42128877930442
H         9.15817646969342    4.47766815393365   -1.13228811676913
H        10.83517562817528    4.74426243995811   -0.64148063445923
H         9.66877114240168    6.06720719091980   -0.50634966273562
C        10.36377611008975    1.31008790985639    2.61069494213997
H        10.44242800201009    0.74707187903404    3.54660452297072
C        11.46452150958052    2.29241878486542    2.51440556768545
C        12.22502108199367    2.48495948533447    3.81316227807631
H        12.90774340551343    3.32669975757287    3.72437274910311
H        12.79844370645290    1.58222935459115    4.01728747917636
H        11.53261958894994    2.64739883451003    4.63364338720601
C        10.21801274238718    0.33327159397434    1.49324148310461
C        10.31366556852253    0.84623386872780    0.08734767805759
H        10.31925178645032    0.01488404655034   -0.61342365646416
H        11.21090135758943    1.45106101554732   -0.02113541781708
H         9.46093864293279    1.49241653511770   -0.10490076017032
C         5.88828009442232    3.54090686571903    1.86538729740202
H         6.33363483207210    3.07321757183244    0.99980205669486
C         4.66476389008026    4.17144940313615    1.78938738301894
H         4.12926664942700    4.20924840465562    0.85511810583372
C         4.14952549110989    4.75088931727625    2.94523501326787
H         3.19493579121547    5.25518925417513    2.92768525629875
C         4.86890234177949    4.67383596648508    4.11503849596538
H         4.52051262080047    5.10101931864936    5.03985795776235
C         6.10700329072728    4.01279357989781    4.11256579586103
N         6.88542354721366    3.88191813946196    5.22134186874974
H         7.74868217602664    3.37117325726117    5.05704770119824
N         5.61672795907100    4.99484774460872    6.84988383864331
C         5.48603044082470    5.39196806283995    8.10617255683344
H         4.57686583275753    5.93997968238040    8.31711301108252
C         6.41903347211687    5.14198646381352    9.09340750387191
H         6.26374354410985    5.48756749235419   10.10246349614800
C         7.56303004770004    4.43070950850474    8.74184140090939
H         8.32029168885411    4.21197919993216    9.48075282254829
C         7.71588081910895    4.00984181398079    7.44021925053617
H         8.58479337692768    3.45571568436952    7.12058240753364

