79
CSD_code = LIDKUE | q = 0 | S = 0 | Stoichiometry = C36H34BIN6Zn | MND = 4
I         0.24249071692057    8.39064385661885   10.34832734152145
Zn       -0.00602587042344    8.43997562781959   12.81667370918849
N         0.68373374160132    9.96356985268622   15.03744498464390
N         0.48139637131796   10.18369782511551   13.72405287844248
N         0.90937448465179    7.50275330253867   15.28418376049165
N         0.97250519055999    7.11423494609924   13.99490069349139
N        -1.36827239091327    8.55933377703126   15.21039368237610
N        -1.65207634688587    8.23493334595432   13.93343896896615
C         1.41011987656325   10.96651271911395   15.57551508733389
C         1.68373075112108   11.87143417738099   14.56665692534149
C         2.45207800652877   13.14627888831309   14.50007984546701
C         3.06059725460262   13.25525031146801   13.09610973457149
C         2.01731465018557   13.07580382110901   12.02453697208232
C         2.01637951673751   13.84522839849484   10.87429490435029
C         1.05094062294786   13.65763820860425    9.89751960955311
C         0.05645673577676   12.71158562399037   10.07476632134249
C         0.03869900765995   11.93803794334283   11.21996104139304
C         1.03073247119861   12.09054171188869   12.18067440122096
C         1.05825965120783   11.34883162632547   13.42504890679402
C         1.82369785255037   11.01276986862120   17.00198271927281
C         1.69499061289917    6.71520881864437   16.05008498910542
C         2.28911424060665    5.78405584304358   15.21983863069576
C         3.27350973702051    4.68723552698638   15.43724622733122
C         4.13982375606756    4.58213786146021   14.17624627330970
C         3.29238624344022    4.44432653471435   12.93892183792330
C         3.64685308444255    3.58933706696038   11.90994823833532
C         2.85547548035483    3.47511037862502   10.77772827636863
C         1.67967182214971    4.19802013761179   10.67710822999013
C         1.30852205264378    5.05196863549434   11.69835475778502
C         2.12214711251346    5.20902803890432   12.81299547783088
C         1.78655649321525    6.05841341250790   13.93927837636007
C         1.84240581829486    6.86516302450639   17.52125493771968
C        -2.51104428574962    8.71827737339879   15.91380578754793
C        -3.56909146308258    8.48775466983225   15.05438656079505
C        -5.05108804676708    8.51564094582556   15.20542698380635
C        -5.65631499834083    8.97310589283830   13.87282802709473
C        -5.12923082637784    8.17865831683415   12.70619754730615
C        -5.94387825270914    7.83147552224940   11.64197866061575
C        -5.43670602323222    7.13182542600289   10.55825490644034
C        -4.10451492428949    6.75595909473413   10.53431725472150
C        -3.27893943872644    7.08773584454750   11.59163827430232
C        -3.77477790099931    7.81409267351059   12.66744079078801
C        -2.97836585829347    8.17465479508679   13.82232394213987
C        -2.55596026442469    9.09026435097063   17.35193559017796
B         0.07666088585324    8.72110814799102   15.70983950576255
H         3.23869034715347   13.17439785038786   15.25671798263188
H         1.78131347225430   13.99448168465568   14.67774756493863
H         3.81731289779200   12.47095445851955   12.98066192428119
H         3.55837009043448   14.21863944636005   12.97432239537499
H         2.77793605422551   14.60063984077691   10.73913034774523
H         1.06977400162263   14.26183656377285    9.00270924516687
H        -0.70533329420648   12.57389919285850    9.32312814406149
H        -0.75530614244954   11.22504052891125   11.38177335641769
H         2.49902278465048   10.18925811591686   17.23161246231749
H         2.33504512220774   11.95064827301954   17.20182893154387
H         0.95987620376740   10.93510009561452   17.65919136021863
H         2.74681701567273    3.74075880433600   15.60219737591817
H         3.89774111378706    4.88274423281172   16.31133744293373
H         4.82346628964637    3.73545183893196   14.25617700131580
H         4.74353961120580    5.49262404298559   14.08871663549372
H         4.55157224849158    3.00340199877355   11.99428119139181
H         3.15175501379151    2.80847603339793    9.98155413581977
H         1.05021220234674    4.09925648256454    9.80635579802597
H         0.37271105120916    5.58459105010047   11.64489226184109
H         0.88267897699108    6.73275273744355   18.01764127049152
H         2.53437306020975    6.11421448136890   17.89320451342947
H         2.22104948644831    7.85262539452923   17.77805797484987
H        -5.35616375895802    9.18901544584600   16.00880252588833
H        -5.41543602633961    7.51162371240036   15.45029582647632
H        -5.39735745565126   10.02653242680917   13.71504092979976
H        -6.74462925764577    8.90149093654648   13.90990774431605
H        -6.98786544838590    8.11199058262375   11.65856529531486
H        -6.08658922313014    6.87390245822195    9.73529027789589
H        -3.70751289063228    6.20537925345033    9.69543408107547
H        -2.24756878116317    6.76959233798942   11.59617893652458
H        -2.04051582179967   10.03395392789793   17.52190177766495
H        -3.59110822528519    9.19122723400321   17.66722333239969
H        -2.07763669036254    8.32704464914910   17.96342325168836
H         0.09192862168661    8.83613972125108   16.88295413264499

