50
CSD_code = LIDLAO | q = 1 | S = 0 | Stoichiometry = C20H23NO4PW(1+) | MND = 9
W         0.89678684424695    6.51863765510516    3.99263346804800
C         1.38241992647140    5.16868192879942    5.38723958992951
O         1.58512044626404    4.49948340460481    6.28721832086363
C         2.47524116929692    7.54786620166522    3.34495320613847
O         3.38265404994815    8.16213243417903    3.01091987599326
C         1.77011381093509    7.43158589834001    5.52999110708266
O         2.31997209452196    7.93307947224491    6.40061249052665
C        -0.98872531933915    5.81725594850168    2.84200453215439
H        -1.14418667117386    4.93389273957568    2.23439685430373
C        -1.36048260197004    5.94221567931862    4.19706197371293
H        -1.80653403443246    5.16243274669676    4.80014194801014
C        -1.20270739524268    7.30105177309431    4.57201584396436
H        -1.54220824000014    7.74156177990915    5.50116836580885
C        -0.75318765081568    8.02509310482072    3.43052642703977
H        -0.69086134370729    9.10315720400395    3.35450727953551
C        -0.60341981101182    7.10606460427917    2.36269749521133
H        -0.44637723440827    7.36936468116385    1.32287991165760
P         2.08961092222526    4.90824917918210    2.52242180442059
H         1.46945525831895    4.77910552028317    1.28285888563542
C         1.56972883962083    3.20806131508002    3.12056027158225
O         0.61068809717025    3.21845698937267    3.86792402210812
N         2.22743309385733    2.16049559605907    2.64851580796550
H         3.02077839873718    2.31443461097843    2.03804113789119
C         1.88370504958967    0.77955528929447    2.95228170400006
H         0.99384922448011    0.80417516904412    3.58325234342779
H         2.70627870680526    0.32986552662070    3.51622714909777
C         1.62646058981739   -0.00866445803764    1.67707445755683
H         1.37459836811349   -1.03417090545402    1.92883733902637
H         0.79882343466788    0.42131511650655    1.11861027357631
H         2.51125788289873   -0.01868769727747    1.04434671456359
C         3.81903235037440    4.92768427313535    2.01050295203145
C         4.19005198365843    5.25731480768833    0.69545610121004
C         5.53636177093808    5.24802185771884    0.36822894380228
H         5.82756634478874    5.48750495871588   -0.64356690022858
C         6.52184771420635    4.96052321816127    1.30399982159189
C         6.13538554787138    4.69904826493563    2.61508075185646
H         6.89399164363487    4.51409473340011    3.36070139025857
C         4.80417913744750    4.69104514403878    2.98709790262950
C         4.41847756598328    4.48323359231188    4.41748299455090
H         5.26865805086078    4.13504933324880    4.99827996950164
H         3.61361793495613    3.75248541937425    4.51707127617608
H         4.07657155539016    5.43118353575299    4.84729792631532
C         7.96596069166410    4.95320081258087    0.93126503110246
H         8.52616772088342    5.62585392060517    1.57807295262733
H         8.10962920752057    5.25739450707966   -0.10124154936403
H         8.38090619812518    3.95447785830984    1.06135573725015
C         3.18117332535322    5.63876377980296   -0.34448224028418
H         3.68159989700357    6.05629639604610   -1.21389008787833
H         2.49426885375397    6.39258627280247    0.04462077950575
H         2.60766659970602    4.77278880632835   -0.67855435348090

