63
CSD_code = LIDQIY | q = 0 | S = 0 | Stoichiometry = C28H24Cl4N4OPRe | MND = 6
Re        9.29361265936843   11.00856007838612    9.32477203520767
Cl        7.28828220613502   11.33192763787756    8.30619106719581
Cl       10.00908379933541    9.47835884256706    7.82762334031104
Cl        8.56152943535058   12.08316494332328   11.23066166677694
P         7.48819186442474    8.86280239946038   11.54353830088585
O         8.28891223860771    9.18008692001912   10.32521803556364
N        10.21167048053186   12.61862920837515    8.58893023320961
N        11.93855720769056   11.97910061794032   10.01937047949911
N        11.12924931343921   10.95295511436815   10.21022287555574
N        11.97618528137585   13.97363428013129    8.65882704184455
C         9.99473122698480   13.65067915304429    7.72913149763192
H         9.09191325956325   13.72173572142109    7.15589550484539
C        11.07178902512957   14.48619961304456    7.76963594508983
H        11.26218266664353   15.39527295963300    7.23679044683928
C        11.43421514585855   12.83390267321125    9.15143303843020
C        13.25181434047736   14.51977076882206    9.02455459959655
H        13.75407142970102   13.79838269982786    9.66501978626266
H        13.12562312469583   15.45990831040681    9.56557401667566
H        13.85441912638915   14.70051076072669    8.13339891817235
C        11.60877772859435   10.02137286494525   11.11564142700404
C        11.23180556175137    8.67943300051560   11.00498891302525
H        10.59467588749918    8.37046112754003   10.19126555560306
C        11.69963883854571    7.74604281259577   11.90558045631270
H        11.41439375883752    6.70981228311945   11.81417542402380
C        12.54589664372057    8.14545138830905   12.92888375616226
C        12.93968160623625    9.47044831607547   13.05039692421245
H        13.60175985050124    9.76444617725041   13.84992366095051
C        12.47884709058571   10.40071224305096   12.14437455158201
H        12.76601416414899   11.43719478457534   12.22112274203499
C         6.53853951712691    7.35387172259238   11.22099821583142
C         5.57588653009236    6.92175104379428   12.12507989608246
H         5.40693689540636    7.48422896245755   13.03342126244778
C         4.84478490067559    5.78108995285810   11.85162451514697
H         4.09482569780059    5.44027439183299   12.55025362814412
C         5.07079452014469    5.07752460832296   10.67759619917222
H         4.49500454115576    4.18852506636023   10.46624402141979
C         6.02656115611954    5.51292656129060    9.77455213361279
H         6.19627182587636    4.96551467133842    8.85932588987948
C         6.76250327670603    6.65357082083676   10.04519871433645
H         7.50756721052906    7.01737962740671    9.35244426878714
C         8.53282053116397    8.56087357896918   13.00544099112039
C         8.66350139048675    7.28912325578164   13.54576822181782
H         8.12545096598101    6.46044971213084   13.10709781950108
C         9.47801104934748    7.08786592603018   14.64650363100247
H         9.57860783339098    6.09812521622398   15.06697520420120
C        10.16211338000651    8.15252249238035   15.20857969990394
H        10.79123156485443    7.99303012893908   16.07148083242020
C        10.04605794208075    9.41915976092574   14.65879864744202
H        10.58471479707139   10.24935595377555   15.09059934998792
C         9.23592006091272    9.62554525662964   13.55737349070274
H         9.14057494247448   10.60938958803145   13.11975470828949
C         6.22679439601626   10.09469145945734   11.98060174344392
C         5.39656975816977   10.50840770627073   10.94561879376227
H         5.55515537281700   10.11828691980816    9.94977173047547
C         4.40196705654465   11.43608232230785   11.19011632619975
H         3.77081120861745   11.77322684508086   10.38166859970092
C         4.22365777571842   11.93392280999018   12.47108439429192
H         3.45092307382559   12.66394241041406   12.66287935746005
C         5.03403109082529   11.49924435641906   13.50706851269871
H         4.88905954358612   11.88525031856807   14.50561481385145
C         6.03645200355728   10.57585278779536   13.26748357331289
H         6.67511871392954   10.24036520558125   14.07198485338668
Cl       13.11825451486857    6.97997085886184   14.06235371968138

