40
CSD_code = LIDRUO | q = 1 | S = 0 | Stoichiometry = C17H18O3PW(1+) | MND = 9
W         1.99080321305852    7.93298929791153    3.01899830682817
C         2.17543586319559    8.36777271191798    4.95635714760139
O         2.19239833034530    8.63480541870524    6.06620216539258
C         3.53616164440392    8.68242208357265    1.99868213319251
O         4.37878042158883    9.15099138924221    1.38683646376411
C         2.01600726998948    9.91887633417305    3.22464168168810
O         2.07013699408172   11.05049191180609    3.36535315537445
C         0.71825779939429    7.39157845137825    1.14134464596258
H         0.86519722768683    7.66790366269493    0.10464241375509
C        -0.13038015333910    8.06406686446148    2.06129317735590
H        -0.73103703390559    8.93669252209941    1.83893559222511
C        -0.22793926929751    7.27373549342125    3.23697448460601
H        -0.91576695103059    7.44655456957319    4.05499226675337
C         0.58022608140199    6.12579246027184    3.05980093830586
H         0.58086306766503    5.25116542477303    3.70071048323115
C         1.16338648127115    6.19782605528117    1.75473376060630
H         1.66830843712526    5.38251834933201    1.25047925700337
P         3.86080675018262    6.40989345082487    3.69810423778371
H         3.68385561539385    5.08471968306800    3.33204811025303
H         4.00870717289787    6.15566059726477    5.05478558688297
C         5.55299852075532    6.72484877948295    3.18272278373962
C         6.04484966457305    6.16533189002033    1.99443695119602
C         7.36095319355732    6.40944546000680    1.64175041191785
H         7.75042437838371    5.97183791191966    0.73475064071291
C         8.18695308500468    7.21267318553249    2.41870960178607
C         7.65700836021829    7.80960754460551    3.55932038498950
H         8.28109565067249    8.46612716166223    4.14694705247600
C         6.34948336836385    7.59101277215260    3.95031838937605
C         5.77765017862578    8.27176965045703    5.15320831106380
H         4.79817379165233    8.70382195622561    4.91458238927000
H         6.43438519577260    9.06962224716046    5.48902495139118
H         5.65921784741585    7.56886642131672    5.97959577362473
C         9.60426130180907    7.46807675251422    2.03003060602658
H         9.73695800641675    8.51760867746449    1.77028557585840
H         9.89626452103486    6.86080264526813    1.17843363996677
H        10.26985667804730    7.25113683164956    2.86329801111247
C         5.15969761841570    5.33537041030174    1.11758878497081
H         5.58997498864245    5.23981945856858    0.12433620519563
H         4.17459020644159    5.80285514266306    1.02353712466632
H         5.04009448211656    4.33050836925889    1.52600640210016

