23
CSD_code = LIDROF | q = -1 | S = 0 | Stoichiometry = C6H6MoNO9(1-) | MND = 7
Mo        2.90837349365122    6.54219051595769    3.60644806256698
N         1.25010770107111    5.29347449904332    2.80599912753112
C         1.91283185648039    4.13591317859623    2.20515391666479
C         3.10278051433507    4.68032203368414    1.36200202302501
O         3.62523919332778    5.72639353296965    1.87710092095561
O         3.44786969625958    4.12037394967294    0.34427272046756
C         0.43252862185894    6.00308846882293    1.81198656123674
C         0.97010856032654    7.46095852857202    1.60864720341818
O         1.98938829813783    7.70846695499467    2.32738199983777
O         0.40746544706393    8.19480684490655    0.82897674748616
C         0.45256424506094    4.93875290915922    3.97994856837864
C         0.26405769713571    6.24006376303241    4.81307284035016
O         1.27637574200508    7.01596633846793    4.73813325338095
O        -0.75212546309470    6.42883909591021    5.44544920389519
O         4.46448417167023    7.52779867984571    3.50950739505090
O         3.65189164050080    7.97434628480201    4.50020634970527
O         3.25820858878329    5.20790355563352    4.49508652226401
H         2.36355443712338    3.53025080455272    2.99830333749157
H         1.23284599523122    3.51924654819688    1.60331250511013
H         0.46391556878709    5.50636435984593    0.83641536603051
H        -0.61232868095715    6.08133013429696    2.13067071453961
H        -0.50832509503892    4.47661944922299    3.71935954791846
H         1.03298777028065    4.26152956981374    4.61526511269463

