131
CSD_code = LIDSOJ | q = 0 | S = 0 | Stoichiometry = C42H84Cl2P2Pt | MND = 4
Pt        0.45801386708272    8.53699503158835    6.14106923190019
Cl       -0.79060591748162    6.95606384350501    7.26440836475319
P        -0.03833027647356    9.67523614194228    8.07579752569330
P         1.77371724320658    9.82697473926449    4.75258183051839
Cl        0.78375324935778    7.05679215241098    4.39799681194100
C         0.97214756521081    8.91603746443125    9.41129868518835
H         1.05582750089506    9.59817655834614   10.25910471397639
H         0.46455584334911    8.00528528712386    9.73595083394927
C        -1.74913542520162    9.62718248939109    8.74366089032879
H        -1.98196863532414    8.58113614449638    8.95102280758828
H        -1.77367259065363   10.18648701360320    9.68310582265531
C         0.39640979841522   11.47112348617815    8.20206120285194
H         1.47091536023739   11.51290109489908    8.02039132891510
H        -0.08376069742705   11.98350029768749    7.36534217294409
C        -2.76236536758986   10.18756252097923    7.74868225118751
H        -2.51209228513269   11.22310796234944    7.50200317764211
H        -2.70318106484877    9.59822106488237    6.83071911206756
C         2.34592565272877    8.57177326756148    8.83925022103943
H         2.19442611398192    7.83438358668256    8.03902775662430
H         2.78425311997670    9.46596058557442    8.38381698489473
C         0.06110074135027   12.16849150764350    9.52146810638763
H         0.06558847929546   11.45322600120377   10.34686511076136
H        -0.94278388008161   12.59226514859860    9.46317121337549
C         3.32846348561912    8.00698046844784    9.86260258459988
H         2.87246117894250    7.16336928566977   10.38399519227842
H         4.19373693004215    7.63052297498910    9.31629755940854
C        -4.17525373535496   10.13051358780361    8.32802931665100
H        -4.16582339616427   10.61852334889847    9.30716628375276
H        -4.45604280369283    9.08701033837498    8.48332124049246
C         1.05860712845152   13.28156086656315    9.85486863391095
H         1.16191848660128   13.94642741345131    8.99357213068681
H         0.66302361360125   13.87461274194586   10.68254288020283
C        -5.23062882551188   10.81433891642467    7.45748458745021
H        -6.15014795563351   10.91303094668694    8.04031302959567
H        -4.89264061226696   11.82347763541939    7.20685161489672
C         3.79055038636021    9.05314823804409   10.87751939357523
H         4.06689059880188    9.96805635501177   10.35007574153793
H         2.96193133220356    9.30254617363365   11.54434271778497
C         2.43061643771766   12.73831496806353   10.24897550953389
H         2.32482061773704   12.07454370525199   11.11008405855089
H         2.83338360470119   12.14342450666658    9.42849856683773
C        -5.54527981921814   10.05332688314308    6.17152054170729
H        -5.87801901149348    9.04360259627001    6.42149698136052
H        -4.63635434095811    9.97136640848855    5.57753374260037
C         4.96641168216142    8.59355722781417   11.74425254127825
H         4.66125323449113    7.70926642001141   12.30897248695257
H         5.18908008992440    9.38391525642482   12.46625948616338
C         3.42135780188273   13.84980513198215   10.58972941580831
H         3.14650605956491   14.28796816962521   11.55155693911420
H         3.34776672514279   14.64174874974819    9.84272168376487
C        -6.62940029900079   10.75931391683768    5.35865700791961
H        -7.49872287665500   10.92347396919165    6.00136393954576
H        -6.26415399574456   11.74338272115441    5.05793089074919
C         6.24446510302845    8.25576621143633   10.97258721648940
H         6.99754141878373    7.91356159441217   11.68681907424125
H         6.04370761594705    7.42514782606427   10.29707056271916
C         4.86560863871688   13.34569633487380   10.66174484027984
H         4.88772090482234   12.43276426587312   11.26206156854498
H         5.47818429010064   14.09045891803393   11.17455644873853
C        -7.09418750428996    9.97499197867708    4.12836684014368
H        -7.51190731350070    9.02269085422266    4.46421346134227
H        -7.89825921079411   10.53409243394961    3.64271887275087
C         6.81071839147945    9.43729126339631   10.18785860907415
H         7.11072866842177   10.21633751110588   10.89390045718823
H         6.03833217140837    9.86040550826894    9.54742258047662
C         5.49045428397826   13.06275840661126    9.29295185134127
H         6.42342082120785   12.51341322017188    9.43810615549611
H         4.82356735306275   12.42490776481815    8.71163627646406
C        -5.99878556099278    9.68464170388581    3.10075549037553
H        -5.18082125090760    9.16511909167296    3.59743747069977
H        -6.39925210548435    8.99895981957506    2.35030165097138
C         8.01939888453507    9.06788199994065    9.32505786948232
H         8.78404290200425    8.61731097375883    9.96262423414065
H         8.44034830627048    9.98596197489189    8.90617147749423
C         5.79007092127685   14.33910398551877    8.51069837564716
H         6.47959707148656   14.95210016802214    9.09676351096741
H         4.87565127770889   14.91751324194393    8.37802246730046
C        -5.47292644861010   10.93701517814319    2.39401453997786
H        -6.15576355213793   11.20246919811421    1.58397110126214
H        -5.45372390394180   11.77719286111864    3.08966180544510
C         7.71473394998149    8.10325453214264    8.17553598670363
H         7.30505098302070    7.17320209469874    8.57305961927028
H         8.65692825950353    7.85191765397025    7.68187198709039
C         6.42028278510844   14.08474209279694    7.14105439296362
H         7.34537377181384   13.51802948699515    7.27365730546980
H         6.68750264104880   15.05097382798403    6.70527764851348
C        -4.06118268387115   10.74689133513287    1.83419223798279
H        -4.00416439900352    9.79464192119525    1.30277382848483
H        -3.84560158454035   11.54121784835492    1.11529428356796
C         6.75099075950882    8.66968199936456    7.13383193158488
H         5.82079773490096    8.96124196452224    7.62099466559281
H         7.19107964170079    9.56215768187170    6.68118317014723
C         5.52845005552228   13.33579337658231    6.14662244812982
H         6.05824603372779   13.30037201314727    5.19122778039009
H         5.39314337708748   12.30606496120713    6.48171465394955
C         6.43958115821711    7.64256115555677    6.04613535751357
H         7.37920062799612    7.26579663586367    5.63448983797310
H         5.91495550043419    6.79580803023054    6.49456517847859
C        -3.01190297449593   10.78080037813378    2.94211192638083
H        -3.24341217391130   10.01479136755385    3.68354303787291
H        -3.05599937152696   11.75017862458525    3.44610398748473
C         4.16666122027025   14.00220670458413    5.93508235727696
H         3.48321014596506   13.71571949141676    6.73594181673962
H         4.29341908690573   15.08645103428450    5.98476313868904
C        -1.59054287529019   10.53633626116773    2.44398778126880
H        -1.55171873111414    9.58518565640902    1.90960307359622
H        -1.29622296827480   11.32504156929284    1.74670485270838
C         5.59545817686665    8.19960604157359    4.89867282393899
H         5.45535553871937    7.41044601526487    4.15666564788916
H         6.13721029014124    9.01674031283447    4.41412838752021
C         3.53738407501613   13.67501022018799    4.57904704897283
H         4.17672911332509   14.08611122071756    3.79352174780983
H         2.56943733067684   14.17829697862685    4.50960744461622
C         4.22409664994674    8.69967839503183    5.34672825463144
H         4.34732681860460    9.58422037257196    5.97592584456318
H         3.72834433643051    7.92916938846343    5.94313330703733
C        -0.62274290920654   10.48956232698148    3.62148330883358
H        -0.64476444379724   11.44745814506820    4.14895614047977
H        -0.96553508028889    9.71490514476228    4.32619591385775
C         3.34736864061202   12.18221028728565    4.30061258815095
H         4.31363557859280   11.68509979158997    4.37955670789802
H         3.00196323154551   12.07622030476408    3.26969577528806
C         0.81047099996016   10.14948851667978    3.22105143470224
H         1.26046338514233   10.94823809756197    2.62707553901538
H         0.82080521824355    9.22525221429840    2.63912733070822
C         3.32383745559070    9.03750288991592    4.16013809335472
H         3.03952440891422    8.12381525437765    3.63562016192335
H         3.82426001912512    9.70446454364904    3.45397614661879
C         2.34793235345283   11.52377686662573    5.24682136714259
H         1.44828693355766   12.13946789761545    5.32988399726616
H         2.78100961750548   11.44333147362031    6.24512303702382

