151
CSD_code = LIDSUP | q = 0 | S = 0 | Stoichiometry = C54H94P2Pt | MND = 4
Pt       13.78457282150949    1.69873198759852   -4.47329010392555
P        15.04536361924616    3.24793477925994   -5.77438072546435
P        15.13133116084855    1.37568361311374   -2.54449155293192
C        14.96044287301278    3.16034187737514   -7.61566370128398
H        13.89911892315217    3.05862880269509   -7.86123125166746
H        15.32481752257470    4.09389208924385   -8.05250700753463
C        14.10744802714196    4.81645293462941   -5.49065057540478
H        14.70762166370126    5.69545328512061   -5.73897396020920
H        13.24173206335526    4.79081309001393   -6.15789435862122
C        16.79891749099484    3.79501574539598   -5.46863486854077
H        16.79366978549338    4.20169628644506   -4.45273260554099
H        17.41477358914364    2.89216097405750   -5.45515750354889
C        17.39611244577309    4.82402003518969   -6.42501624576077
H        17.73615192308767    4.33097305389159   -7.33725878563151
H        16.63470251060274    5.55439922105144   -6.70865332620531
C        15.71503743960912    1.95883185464650   -8.17443770922644
H        15.36730358581266    1.06506848465325   -7.65406701588724
H        16.78631468712769    2.06334483506623   -7.98341710095505
C        13.63269828067605    4.86558995705742   -4.04081841001130
H        13.16430060118143    3.89185065659057   -3.81283252765470
H        14.49345215356019    4.98514951424178   -3.37617439141675
C        18.56516905838012    5.58870663410567   -5.79876074599294
H        18.86630752757933    6.38296329367520   -6.48699204327821
H        18.22636035543518    6.06807051097415   -4.87629402645537
C        15.47443641718299    1.81526592419650   -9.67603257920963
H        14.39994212418489    1.72939495981157   -9.85416038647268
H        15.82029283037080    2.72635727167605  -10.17257976430658
C        12.62842391874100    5.98094982532038   -3.76759081421948
H        13.09241608628200    6.95233356492473   -3.96025460642332
H        11.77850017166840    5.88019007014141   -4.44639528024732
C        16.18318307941258    0.61091444157943  -10.29843558740415
H        16.16228532894572    0.71304422244524  -11.38641298510629
H        17.23188954157228    0.60760355981438   -9.98970550097904
C        19.78491625220746    4.72066200512789   -5.49276511246399
H        20.12394446308394    4.23633901865890   -6.41177086401020
H        19.50909220611931    3.94027505852812   -4.78272678468350
C        12.13483075749442    5.92440574398917   -2.32365064867930
H        12.99555118914600    6.00477861342046   -1.65348432747362
H        11.66934258079961    4.95123687031493   -2.15737141103890
C        15.53624836106533   -0.71768989282842   -9.91477978792430
H        14.49243493532719   -0.71362609812637  -10.23610972935650
H        15.55461625097792   -0.81645706498211   -8.83084888897948
C        20.92133357411887    5.56234876233079   -4.91379376648484
H        21.09875928440623    6.41173907483763   -5.57907838242083
H        20.61396537407681    5.96868216347307   -3.94842940585262
C        11.13864778431132    7.03176473689747   -1.98751115463400
H        10.25037855679941    6.92710941885213   -2.61451102673820
H        11.59631262966279    7.99640120023037   -2.22229221182732
C        16.25752814809690   -1.90700836374354  -10.54499676276222
H        17.28601325283908   -1.93576994509064  -10.17926110158252
H        16.30758361895762   -1.75888804354179  -11.62715851671812
C        10.72678902766624    7.02720292196477   -0.51304587131791
H        11.62784103093775    6.97865535381283    0.10128204318708
H        10.22400416471831    7.96951959730465   -0.28110240238619
C        22.24239522444471    4.80668795856949   -4.75811828981254
H        22.56556759399166    4.45899614983290   -5.74276039417807
H        22.99628478918808    5.51013444102179   -4.39573003337470
C        15.57020769410954   -3.25033916908442  -10.28180113916478
H        14.58690963663250   -3.23465259449396  -10.75875268308993
H        16.15508097275996   -4.04021765282249  -10.76019519849034
C         9.78762532555693    5.87630176054093   -0.15397992387359
H        10.21423414638966    4.92487387328054   -0.46805292341770
H         8.85369572807618    6.00872624037544   -0.70674160829211
C        22.20168980974708    3.60596884188496   -3.81129805275884
H        23.20030045784742    3.16211699602023   -3.78480581636585
H        21.52221180786512    2.84838983315799   -4.20766276337309
C        15.37895138194189   -3.59625829608027   -8.80374511781188
H        14.78106920141308   -4.50854375323922   -8.73605838758831
H        14.80134949574948   -2.80439837653532   -8.32866328412783
C        21.78360093006653    3.96274639218846   -2.38606696961623
H        20.73891347158282    4.27149137808762   -2.38227221781904
H        22.37822648727278    4.80896826147709   -2.03392936815628
C         9.45758978755155    5.81121861973531    1.33836675146557
H         9.09062542295317    6.78987683328897    1.65966002219126
H         8.64317654934988    5.09585132510365    1.47954537657029
C        16.69198261373766   -3.81169490770214   -8.04836734109319
H        17.43203140219632   -3.07832133903497   -8.37122282053109
H        17.08443576867082   -4.80085136691373   -8.29471950875382
C        21.97496600019963    2.78281226194043   -1.42934444112973
H        21.63251181090727    1.86478288146532   -1.91218296914959
H        23.04391015069168    2.66226092151362   -1.24232289778427
C        10.61416221586151    5.40393237745633    2.25757931010786
H        10.23930948096158    5.44678925468718    3.28292340827685
H        11.42219711635337    6.13353950638106    2.18433617805274
C        16.52535276317865   -3.68814744548591   -6.53179671993099
H        15.63750119102498   -4.24025005670717   -6.21560153388586
H        17.38862925663486   -4.13781097975149   -6.03492395686798
C        11.16892602820743    3.99840243142311    1.98359755683191
H        11.40380345735377    3.50602070806806    2.93002955972925
H        10.40086089303156    3.39793019205257    1.49173610141228
C        21.23341145806788    2.95692347965606   -0.09559737056332
H        21.05982253764773    4.01956360453056    0.08687388308191
H        21.85918172173028    2.58670929349751    0.71906576837778
C        16.40770956999127   -2.23058123864725   -6.09293865315515
H        17.31180924111461   -1.69340798479557   -6.39214902908018
H        15.56446982099784   -1.76345330313207   -6.60476732768128
C        19.90046307810812    2.20613738122542   -0.03709894396811
H        20.09154963613198    1.13616978689163   -0.15376820282707
H        19.45499800000470    2.35386420330228    0.94999285157686
C        12.42881947259422    4.01326618342230    1.11891661209735
H        13.24199734135770    4.48789274922360    1.67463309827126
H        12.24861747572934    4.61308635711704    0.22856665492149
C        12.85874029697747    2.61445941177264    0.68029157566505
H        11.99642652639042    2.08215266701585    0.27206790578967
H        13.22000490123980    2.04692895928134    1.54137900834782
C        16.20075225764478   -2.06841857511924   -4.58968114545820
H        17.04169927230468   -2.51120798269572   -4.04907463432179
H        15.29692464467908   -2.60403435640711   -4.29003715698685
C        18.90918962584788    2.65333806194910   -1.10697773407924
H        19.35138913235449    2.49255038989748   -2.09148560941871
H        18.71330243431059    3.72298547346041   -0.99567274941326
C        17.58625028749017    1.88982915802983   -1.04626418753349
H        17.79491609407903    0.81857484019704   -1.07074726713510
H        17.07781920403928    2.11050968522132   -0.10666837832990
C        16.06140358259896   -0.59511776308102   -4.22005164743809
H        15.26146209561933   -0.14356303965809   -4.83546562569607
H        16.99305969454363   -0.07306961504739   -4.45476082066102
C        13.94172007701965    2.67609503443193   -0.39386645578888
H        13.54901009253138    3.22792485501854   -1.25319934445289
H        14.80514645121414    3.22853872021657   -0.01492214139286
C        16.71555851139230    2.28764034427750   -2.23309658008751
H        17.29306025067995    2.17052597632914   -3.15523748092866
H        16.45146947393899    3.34696549644674   -2.15286103437597
C        14.37009020032739    1.28930769647841   -0.86715483348236
H        13.48667184573141    0.65280094547556   -0.97434449234679
H        15.05228983303781    0.80987803644538   -0.16072798555935
C        15.69336852415379   -0.36854924542569   -2.75597291767564
H        16.52010413398147   -0.61893772506504   -2.08734267319997
H        14.83698267214517   -0.99670212964414   -2.49305611049256
C        12.53003734577465    1.50811479330705   -6.05014716779896
C        11.50217361683219    2.40700929039792   -6.33274678698720
H        11.28962612018004    3.22083572270803   -5.64833806111393
C        12.72244321653571    0.45698138553948   -6.94771780756532
H        13.48615202810574   -0.28933208193055   -6.75278745471244
C        12.33144541271550    0.65167446021677   -3.52958759472663
C        12.21821197997605   -0.73661636615400   -3.58106738828594
H        12.88907382687979   -1.31286828913619   -4.20763431511890
C        11.24874003096232   -1.40920785191167   -2.85541189113662
H        11.18578119589449   -2.48812468570544   -2.91182813241629
C        10.35873377307499   -0.70830912248577   -2.06117892804125
H         9.60324682406388   -1.23262374282596   -1.49263360002288
C        10.43955893110761    0.67234432912919   -2.01038095573717
H         9.73932394644362    1.23153118300785   -1.40287006948167
C        11.41234279868204    1.33891697673525   -2.73546347181998
H        11.44749513624824    2.42211613668825   -2.67738933623858
C        10.72530033534581    2.28053001105390   -7.47269387414896
H         9.93621762498096    2.99499344277914   -7.66870091843347
C        10.95303280428319    1.24503403788924   -8.36187345989562
H        10.35049341945740    1.14922248840050   -9.25462366504331
C        11.95080921187057    0.32569944875575   -8.08914729479632
H        12.12578983710220   -0.49903938762452   -8.76783039363227

