41
CSD_code = LIDTAT | q = 0 | S = 0 | Stoichiometry = C13H21Cl2MoO3P | MND = 9
Mo        1.50919871122685   10.09816377098545   11.42837477026121
Cl       -0.48603128321393   11.28731093907435   10.41335690099399
Cl        1.32864891450169   12.09205843605680   12.82485471852888
P         1.11892993633971    9.45616221984558    9.16828620750884
O         1.56242580603744   10.39393575996914    7.96708756012726
O        -0.26813515496509    8.93490678400181    8.51532453475642
O         2.12126534878037    8.22687944916377    8.88925217598049
C         2.94452410673261   10.85959844707147   10.54937701676703
C         4.11325709211895   11.41769613834896    9.98615339736080
C         4.90717631058810   10.53256806532394    9.04383260482313
C         4.11951807988211   12.91892470152839    9.75394174698658
C         4.87067435338024   12.36015245837224   10.91200717053450
C         2.34828009959642    8.07217960906219   12.09642225637135
C         0.97706563118085    7.85404209047761   11.79163282507220
C         0.19718185416956    8.56712672761009   12.72463156747640
C         1.06674448556716    9.23659897427907   13.59159405433233
C         2.40620128519659    8.94734101215771   13.20929106709363
C        -1.37180940078200    8.39907262677868    9.21853295408665
C         1.11361629776978   11.73061699816629    7.79125139179547
C         2.29448937054430    7.70426729375162    7.57348080212455
H         5.81888887039767   11.03308205129019    8.72629760253998
H         4.30676106886716   10.29823629892310    8.16683913012635
H         5.16691251203184    9.60022315797420    9.54133937999955
H         3.20610560581982   13.45546090122213    9.96634829022064
H         4.67093971690176   13.28571850157311    8.90099105668054
H         5.94887679169054   12.32581483777407   10.87248980217419
H         4.45630795681480   12.50757996094987   11.89784417787573
H         3.17900014373309    7.52181232874378   11.67360297436654
H         0.61268304224081    7.11324738011332   11.09124556620766
H        -0.87976688575550    8.53492166247027   12.80985291790462
H         0.77665871062522    9.79335597999315   14.47384370949130
H         3.28839813992880    9.17545291623621   13.79356730351512
H        -2.22483100455729    8.45612555142120    8.54184849655203
H        -1.58587530529367    8.99333227262247   10.10920924073877
H        -1.19699507580499    7.35513658922136    9.49104377594429
H         1.64585151042847   12.11596722419517    6.92165876809678
H         1.35199458879159   12.33103839984108    8.67335191559837
H         0.03741264883107   11.75704730041740    7.61556379440147
H         2.67462259201159    6.68907965552146    7.68476094005587
H         3.01321275092143    8.30850736665394    7.02023210581113
H         1.34651977672433    7.69225716086718    7.03398332871389

