63
CSD_code = LIDWIH | q = 0 | S = 0 | Stoichiometry = C20H32BMoN6O2P | MND = 7
Mo        1.52096125535455   13.91018860062715   -5.88169278318472
H         0.95747291494612   15.20735005869130   -6.65111933430791
P         3.20175003586027   15.66208042796239   -6.06708627451431
O        -1.40219471019355   14.30208656532401   -6.79372476643671
O         0.34025442099975   15.01497062048393   -3.26859602706560
N         3.18201087415961   12.93661038773555   -4.89934282634117
N         3.79224779081624   11.89964753151222   -5.48869917145781
N         2.17684066167519   13.13842054317872   -7.84618836646940
N         3.00000648781444   12.08061437629371   -7.87029898404683
N         0.88938323374784   11.85441085553354   -5.64125644849444
N         1.66874942503811   10.88738481187015   -6.15372236820631
C         3.79534689374625   13.16057228817994   -3.74018420595345
C         4.84947748250331   12.25359227715379   -3.59710161853468
H         5.53705999838510   12.18435424571768   -2.77822251102132
C         4.81098966581602   11.45983603215760   -4.72713564631465
C         3.39042579937770   14.18458661022857   -2.74189336809811
H         2.54998580803652   13.81731045117285   -2.15321157068078
H         4.21772460993841   14.38863867175909   -2.06436068817848
H         3.07759259541932   15.10673568947693   -3.22677644663673
C         5.70176738800420   10.32801430721218   -5.09437817352789
H         6.08777228684833   10.45122009994829   -6.10439452641869
H         6.53527930499619   10.28213638615743   -4.39824348241543
H         5.16143320241505    9.38321930341954   -5.05334746518982
C         2.00688024175576   13.54495737392328   -9.09831418384954
C         2.77531379982402   12.74095969106315   -9.95216959024704
H         2.85868012379656   12.82703937750708  -11.01696357457783
C         3.38893043075685   11.81506772360841   -9.13620067695113
C         1.08598658477688   14.62498799590620   -9.54742882280464
H         0.72125301784160   15.21246972497792   -8.71076447621473
H         1.58675170179490   15.27714879859670  -10.26169999771315
H         0.22751354553523   14.17763931389464  -10.04945833993127
C         4.32096019309589   10.71873734388163   -9.50984065279557
H         3.86188623904780    9.74540185437399   -9.34132183418018
H         4.57699361502286   10.80494499601243  -10.56271749809707
H         5.23330965993841   10.76725561662125   -8.91782691999886
C        -0.22118644455232   11.28732646585322   -5.18370289325671
C        -0.15671981414995    9.90909787266156   -5.41548051474541
H        -0.89652443706502    9.17603645832472   -5.16464315823796
C         1.05900963601894    9.69189033954616   -6.03228197487684
C        -1.32840224093030   12.01781854594813   -4.51409732279093
H        -2.08802716416173   12.31573763463204   -5.23663135426400
H        -1.79915029652116   11.36986612781152   -3.77723571910403
H        -0.95405830469357   12.91252969144444   -4.02349711394441
C         1.63881193551376    8.40448322677748   -6.49848010019808
H         2.54955036405679    8.16681013593818   -5.95063506504603
H         0.91761100427686    7.60710976218639   -6.34016569784076
H         1.88379417372649    8.45357211882896   -7.55806252738574
C        -0.31831427050027   14.08143502365945   -6.46979673849036
C         0.85725477530471   14.56218989222998   -4.19982291084017
C         4.96814889604843   15.39631484555330   -5.61977938509129
H         5.33757314047297   14.52512443910856   -6.16274780722067
H         5.55236570348639   16.27167602492284   -5.90495348308718
H         5.08348250524992   15.21903774191316   -4.55395304309587
C         3.48313083175815   16.28907750848362   -7.77014254338293
H         2.55673451051110   16.71654414280416   -8.14799055437681
H         4.26315307847277   17.05110762714106   -7.77657059438332
H         3.77872968984439   15.46381445887511   -8.41621303762127
C         2.86676236542394   17.26744765919692   -5.24466344107692
H         2.80316771929686   17.13548704422615   -4.16641078961991
H         3.64395419998289   17.99563330409979   -5.47913675593404
H         1.90115783610242   17.62699042297183   -5.59958628295584
B         3.09994589862213   11.17515996516513   -6.64832632729569
H         3.66634812958878   10.17459056750506   -6.91220924293765

