83
CSD_code = LIDXEB | q = 0 | S = 0 | Stoichiometry = C28H48O4P2Pt | MND = 4
Pt        3.56116890732380    3.37950764152932    1.89755248899390
P         2.81436421092437    1.93369731657450    3.46324512226028
P         1.98281457257366    2.56323952565671    0.50359133818428
O         4.28248936625686    4.71223371261013    0.56476830761391
O         4.99896561908525    4.16519594951492    3.07571842321101
O         6.59657330557257    5.68682878989445    3.04617627344071
O         5.80223326902764    6.30142270304228    0.38242925793722
C         1.25357311369150    1.12414382273313    2.83830045749019
C         1.17081892189951    1.08895998306889    1.30966291163764
C         5.26016821861627    5.43376999099131    1.03349089962354
C         5.68660791974902    5.10582788117163    2.49395559551449
C         3.96415763241836    0.54072924154611    3.86919307313603
C         5.14824417906883    1.08887546393736    4.66862811234027
C         6.23831266582935    0.03435512102521    4.84177502391965
C         6.70906769571949   -0.48862485147012    3.49028765918582
C         5.53143947938399   -1.08956370634441    2.73252392405448
C         4.44294217739810   -0.03956477226587    2.53765134761276
C         2.36579611242935    2.69303593903583    5.08391671143194
C         1.64581492048897    1.76366285184979    6.05898400128194
C         1.41299613824291    2.49254732952004    7.38203588006013
C         0.61274480066112    3.77269220892168    7.15889096737253
C         1.33326697001402    4.69207692527482    6.17613212472623
C         1.56368808619145    3.97267809294761    4.85048295150922
C         0.60273127788780    3.73384734308945    0.11367187445037
C         0.14929683506988    4.33846262534694    1.44338822238390
C        -0.87320106291712    5.45196890168163    1.24392737525087
C        -0.29371596016778    6.54081326247510    0.34907289212256
C         0.10031019910841    5.94509485424885   -0.99684790426059
C         1.12570700195466    4.82825708271803   -0.81931058991243
C         2.59813668283269    1.96073020291602   -1.12843491566725
C         3.86188159747043    1.12552379518337   -0.92663786712384
C         4.46750607752602    0.76017422835367   -2.27854705022220
C         3.44854727880884    0.00464043707290   -3.12769247868991
C         2.18612176838561    0.84006996822039   -3.32065951753091
C         1.57039256221855    1.20792157570090   -1.97099993105679
H         0.42499875169351    1.71242387970233    3.23828370253086
H         1.17429479105458    0.11490095154367    3.25155445089124
H         1.69563823833768    0.20856938608907    0.93282513762081
H         0.12984322954194    1.02061946394936    0.98202728731254
H         3.43671274735658   -0.23000050746817    4.44593548225036
H         4.81705839042473    1.41474093998388    5.65628757783815
H         5.55351838989313    1.95914365086768    4.14426097321404
H         5.84942555254326   -0.79747867520360    5.43615855623326
H         7.07699999603459    0.47080431458591    5.38582907726538
H         7.48818604250312   -1.24000386373674    3.62968492273813
H         7.13231341443646    0.33402795999838    2.91160928041192
H         5.12817724698049   -1.93491985936031    3.29645574397219
H         5.85864921436750   -1.46145564827855    1.75963718188193
H         4.84110451233912    0.78646141970404    1.93577092134813
H         3.59919796817342   -0.48102212631610    2.00177096329461
H         3.33093073664013    2.99331344099994    5.51035775354369
H         2.23634904629223    0.86237028847034    6.23569451379198
H         0.68209318630538    1.46073004443935    5.64314749255006
H         2.37664953838991    2.74322682470890    7.83004462796137
H         0.88198844492621    1.83664750171229    8.07488865041433
H         0.46835826393709    4.28708772498813    8.11022816846015
H        -0.37414148078884    3.51928127778485    6.76369448168718
H         2.29461245499503    4.99283819660891    6.59608801896720
H         0.74341932321009    5.59511401212265    6.00994063042414
H         0.59677976252820    3.73864905125477    4.39875639571169
H         2.12146818918722    4.61787318945449    4.16349602401295
H        -0.23008677029944    3.19522151490223   -0.35666313318336
H         1.03505510658797    4.74722826937845    1.94523081725644
H        -0.27717414092413    3.55807548066363    2.07831959349042
H        -1.15269895306580    5.86904040591782    2.21336558394004
H        -1.77559670002711    5.04238221202642    0.78216495215895
H         0.58804506251547    6.97232945345506    0.82555350979025
H        -1.02534908198393    7.33795425800162    0.20657740163308
H         0.52124427507005    6.71996621317465   -1.63892747353205
H        -0.79054902060065    5.54705795065957   -1.49128377744004
H         1.35815191915211    4.40786226131858   -1.79945765153300
H         2.04944480646628    5.23650767014492   -0.39911549146127
H         2.89900922539545    2.87691036169270   -1.65154140252258
H         3.62816389508030    0.20808960773955   -0.38132824445668
H         4.57821336447355    1.70741707060926   -0.33710908771956
H         5.35807459569804    0.14666567122340   -2.13173603077990
H         4.77042205759634    1.67121217497671   -2.79744575820664
H         3.18946108717468   -0.93561321349304   -2.63457965499890
H         3.88204122255715   -0.23740339987195   -4.09928655426582
H         1.45928833449721    0.28534768282813   -3.91748559718267
H         2.43774558853573    1.75351510296307   -3.86332323793426
H         0.68133335102759    1.82191276204417   -2.12863765418504
H         1.26377228303720    0.29404621329678   -1.45694208743955

