41
CSD_code = LIFDEJ | q = 0 | S = 0 | Stoichiometry = C13H15F3N2O6RuS | MND = 6
Ru        0.44691351922744    3.83084601343741    8.20663221255198
S         1.18719185913639    1.02266175322934    7.02977096200960
C        -2.18191967369432    2.97898074341647    8.05901959077380
C        -2.04185066349925    4.82861813992393    6.65330084765077
C        -1.80291160540720    4.15681714379629    5.28829865501486
C        -2.11961884519293    1.95065673421541    4.48032219194749
C        -1.58432786979545    2.06886243145045    9.01129853087055
C        -2.19496754893074    0.88951988673908    9.43466977379994
C        -1.54411489923139    0.10020164805268   10.36501089793574
C        -0.32772399200050    0.53646054418120   10.86998387522864
C         0.21794368570482    1.71844999361215   10.39265853948473
C         0.24304383981687    5.35380098836711    9.69155323515463
C         2.20259694474936    3.54170232959630    8.76921049705342
C         1.07338744431374    5.04164980204673    6.95774078379253
C         2.56075231435154    1.45168691709352    5.83770438920709
N        -1.48088914178789    3.97735108134384    7.66737891329982
N        -0.38046301832412    2.46166828778503    9.47120924214427
O        -2.65430773671695    3.03969301628356    5.20330176470625
O         0.27054096152719    2.12486321257867    6.72435667289045
O         1.79962664104826    1.13728823891898    8.33023771581964
O         0.67349629623964   -0.25820372082910    6.65992010508711
O         3.27955439916966    3.43637747892595    9.11872412093394
O         1.46107515815541    5.77500514602680    6.17063690144708
F         2.88738565379650    2.73033050073294    6.09231428716394
F         3.66186877691323    0.71692197761892    5.94176578479307
F         2.13494517423382    1.39402090909477    4.57508403199636
H        -3.19348931730927    2.80168940434866    7.69917708666440
H        -3.14779634704416    0.60103422858147    9.01916743792854
H        -1.97818010755071   -0.83074239317195   10.69563782434363
H         0.20469971327087   -0.03773759230665   11.61037563961495
H         1.16929704599485    2.07435831966477   10.76366815082478
H        -3.12492345168485    4.94042800165211    6.78552880230824
H        -1.55315482648161    5.80455026657578    6.68188351035152
H        -2.02461330839558    4.87176595665590    4.48358012565780
H        -0.75071990392735    3.85032893099105    5.21610632899993
H        -1.90891851396686    2.23115084495372    3.44310786534531
H        -1.20334413656647    1.57858435170781    4.95074204682324
H        -2.88153599139464    1.17389008395607    4.49702235894937
H         0.29558086651533    4.91052486927907   10.69006066202543
H         1.00287328998554    6.13706335071405    9.64579197439924
H        -0.73310268524598    5.84068017876609    9.59794566301600

