71
CSD_code = LIFFEN | q = 0 | S = 0 | Stoichiometry = C28H34HgN4S4 | MND = 4
Hg        2.40291490147660   16.46037796244659    3.28671241532863
S         1.54320813390118   16.39977668209638    0.84806366216428
S         3.59053386877280   18.28643540422157    1.89553816268936
S         1.03222636136783   16.15677766138637    5.45717411261985
S         3.21084370057269   14.35351592350157    4.53349394806503
N         2.89579159107095   18.10188473062580   -0.64288435148051
N         2.13364263838239   19.98291760515186   -2.59886054664165
N         1.72884651158603   13.92029006081056    6.67072545070407
N         0.19496865413011   11.68362300601902    7.44246036649412
C         2.69175293570516   17.64302605688078    0.57992705636765
C         3.75314012797494   19.22641229835488   -0.94894696767829
H         4.43770164532852   18.92432216251150   -1.74666605122393
H         4.32287127026534   19.50890031178563   -0.06465383651928
C         2.89291855581599   20.39331522335497   -1.43257964110790
H         2.23244921331493   20.71896102235857   -0.60852208432521
H         3.53598858777777   21.23028908529626   -1.71115794954812
C         1.26196412476709   18.87594892268740   -2.25876854805286
H         0.69981092824290   18.58016110939176   -3.14691587577312
H         0.54416546916166   19.14099202647400   -1.46160570907065
C         2.11430124952104   17.69622041119381   -1.79007518555080
H         1.48601118908212   16.84624423305184   -1.52738833959793
H         2.80608171179703   17.41117554792322   -2.58787515231988
C         1.42221578161000   21.09889396744245   -3.20417157170370
H         0.75638465383695   21.60341604073471   -2.48249736064245
H         0.80141204101292   20.68797510086336   -4.00835582605212
C         2.38934697892524   22.07412936993773   -3.79409125836045
H         3.13270123330245   21.62446283414594   -4.43533807737685
C         2.35666932087307   23.38518412454311   -3.57006406533730
H         1.58522992080492   23.77828921814280   -2.91730248898726
C         3.25053484025568   24.39179653300418   -4.12578707574314
C         4.33392985940797   24.07941973742693   -4.94873435734525
H         4.53995599029038   23.05060389122178   -5.20031303155429
C         5.15185887737281   25.07433415899853   -5.44730465507878
H         5.98531869748154   24.81359203763858   -6.08349633461602
C         4.90922285934964   26.40287526525207   -5.13790368411224
H         5.55104873912183   27.17780698944411   -5.52988935464732
C         3.83896395884784   26.72959191875211   -4.32230709217276
H         3.64288922049516   27.76273544700480   -4.07474499240430
C         3.02084549471366   25.73514449538269   -3.82206583415607
H         2.18732117271597   25.99785929680470   -3.18558849646843
C         1.95828013928894   14.72286421548087    5.64465704865383
C         0.60877464970571   14.07736676646575    7.57227799707447
H         0.16818200096101   15.06566397936248    7.44729310707485
H         0.97922362292550   13.96585773973834    8.59490139944392
C        -0.42257794893654   12.98591883575303    7.28182203769489
H        -1.24850471406369   13.07551407623349    7.99058358253446
H        -0.81990401024035   13.13249774680268    6.26107962719854
C         1.31021389551474   11.54275775979431    6.52395659164284
H         0.98777948199786   11.63453657800287    5.47094058922113
H         1.75486082514549   10.55580729696696    6.66366342101574
C         2.35058124411430   12.62204979179010    6.81950283878391
H         2.69397469913105   12.52658834325886    7.85295736232122
H         3.19844759901668   12.53689860708535    6.14142080824590
C        -0.76289612880787   10.59618988462433    7.29944244708640
H        -1.17292413765012   10.54471711448913    6.27543738173962
H        -1.59090794993728   10.80393110382835    7.98674209930050
C        -0.13797269663000    9.29114900771336    7.67397704959763
H         0.35920703398221    9.29617818588922    8.63249525172220
C         0.39301131619899    6.89765960381908    7.20564871663055
C        -0.17848873044332    8.20359193395272    6.90838633722952
H        -0.69428590258642    8.26283961334023    5.95639820952961
C         0.18917749709457    5.85441758688495    6.30013571453719
H        -0.38742763082902    6.03789563182892    5.40418114591966
C         0.71039566286061    4.59632503449524    6.53220289463424
H         0.54010771210289    3.80331581872589    5.81855042952527
C         1.45157554861770    4.35260227987217    7.67618463454926
H         1.86083736911739    3.37035124233759    7.86021501297179
C         1.66575373821273    5.37805170060386    8.58314123601455
H         2.24416258293192    5.19365126950598    9.47696084452776
C         1.14377652738532    6.63589687307967    8.35297622403359
H         1.32288369338673    7.42203650403934    9.07012858071087

