42
CSD_code = LIFFIP | q = 0 | S = 0 | Stoichiometry = C21H14ClN2O3Re | MND = 6
Re        2.96349303426118    1.81760005588703    1.30851595134503
Cl        1.09207095354499    1.91603337494126    2.75352406926019
O         1.65110814263734   -0.51604328518601   -0.22884960643091
O         5.35963358168798    1.79534342151080   -0.64489566524133
O         4.14971648163541   -0.09548979945581    3.41876324936024
N         3.70101023299603    3.69176406841230    2.51186620297347
N         1.77120842582443    3.37388158934121    0.11566195268416
C         2.75585786133237    4.54947664815056    2.82212653872335
C         2.99250427966471    5.85267139888488    3.27998256322987
C         4.28180160609896    6.28168556023571    3.41230131811676
C         5.32916452895543    5.37744649259152    3.14493179170974
C         6.68277949858653    5.73542064815717    3.30906343005837
C         7.67747117864752    4.82836607624344    3.07682327875023
C         7.35331618632901    3.52280946116196    2.67955350125565
C         6.05024190453618    3.14827296369504    2.49799093618685
C         4.99843808871970    4.06356356858787    2.70895719740435
C         0.48784263902035    3.09648896079086    0.02397220145211
C        -0.50230863899978    4.05154876610801   -0.24681436411010
C        -0.13903527373198    5.35991630185836   -0.39936752037051
C         1.22984580851001    5.69354313682223   -0.36304827312745
C         1.68666181737424    7.01522006198988   -0.54185457779401
C         3.02275894015861    7.30004357437805   -0.53241681203922
C         3.95703049554303    6.26519130752981   -0.37754937223090
C         3.54541164321739    4.97455874201856   -0.19407769674291
C         2.17245590944483    4.65128752317621   -0.13980975211413
C         2.17318066190740    0.34345722493265    0.32047984611628
C         4.47177881115850    1.82913834693304    0.09154939185269
C         3.76217098968145    0.59701095099307    2.59373838281226
H         1.73124538578665    4.20499718126937    2.73690139621967
H         2.15300195544263    6.49209660183086    3.50283080973821
H         4.51540510943838    7.28712097726613    3.73178611710430
H         6.91148521802133    6.74004618852154    3.63423356930627
H         8.71237779424896    5.10531270955893    3.20861778710718
H         8.14310307749983    2.80552209979314    2.51761785067596
H         5.80755726640327    2.13714313034121    2.20343214175292
H         0.18819770601588    2.06995906842040    0.18740587820508
H        -1.53315280693715    3.73936576951775   -0.29442725516462
H        -0.87204174564354    6.13800363544656   -0.55639694874236
H         0.95421981505987    7.79427102357098   -0.69618171159264
H         3.36722753323070    8.31425850416699   -0.66608598919936
H         5.01239071903933    6.49085728032148   -0.41158320694647
H         4.27097318365126    4.18023868929060   -0.10046860155360

