64
CSD_code = LIFHAJ | q = 1 | S = 0 | Stoichiometry = C18H40ClN4Zn(1+) | MND = 5
Zn        7.90049785000001   11.84176597676646    1.88529112957388
Cl        5.74595679280610   11.85775537089916    1.54100843583169
N         9.49168809304457   11.33849633860452    0.48469185357198
H        10.35198132868298   11.38031914852692    1.03177373304476
N         8.30491058277963   13.86888333494195    1.17909395478118
H         7.55633867189341   13.98260595271646    0.49625091874413
N         8.84243690524377   12.32764931737725    3.76126438972484
H         9.83941719755172   12.40756370979079    3.55933654148031
N         8.06546761370248    9.82160785568579    2.69195168970900
H         7.12436398668917    9.68741769306838    3.06464214065379
C         9.53868130173846   12.48970528967113   -0.43658596943735
H        10.47317538794505   12.48313990673356   -1.01350310286343
C         8.35751037524860   12.47020531941447   -1.40225903155387
H         8.49766125249983   11.72030594310459   -2.17536474247514
H         8.26579904476026   13.43412741062493   -1.89644014605044
H         7.42806655087481   12.24860629342841   -0.87953581711452
C         9.54595478074796   13.76829859875934    0.41035762912443
H        10.39333035167510   13.74213476755243    1.10172328684515
H         9.68423084773462   14.61980024428926   -0.26348196195552
C         8.16802582555789   15.04024524630785    2.08552658658211
C         6.67033370244880   15.32850647639915    2.20384975669447
H         6.09680347239327   14.42241338597918    2.35998806102460
H         6.31497157068233   15.79253212456424    1.28572808969204
H         6.47209799752452   16.01742403917393    3.01824943306358
C         8.81902722486266   16.30055675990313    1.49020294825421
H         9.90417999042274   16.23912935417411    1.47491464055782
H         8.54459622698673   17.16233773666953    2.09189889509476
H         8.46123818518301   16.48019985921487    0.47909847909621
C         8.85651866411116   14.78354871454012    3.44081637008967
H         9.92964635035080   14.67988185764494    3.25143058151155
H         8.73482371625040   15.69690140800556    4.02503980420878
C         8.44700291653513   13.62154012980255    4.36270236239858
H         9.04417494609639   13.77732115030388    5.27435522834275
C         6.98059562679963   13.60223471377113    4.77549306095123
H         6.85367333933625   13.06388460059724    5.71153114586803
H         6.36550234511074   13.12569800362723    4.01761776590249
H         6.62438810103723   14.61400186352385    4.93414752333907
C         8.69750984072425   11.16307382053033    4.65259979614321
H         7.65798342408014   11.13360450369646    4.98997108847937
C         9.63095823850648   11.21314002950267    5.86075299587055
H         9.37931521346659   12.03427129837258    6.52520541316049
H        10.66695128339217   11.32445742727861    5.54524640575404
H         9.54791660313312   10.29336995688709    6.43255608710897
C         8.97143474182769    9.89410544194424    3.83936314817530
H        10.00325589716843    9.91557628810947    3.47982655393906
H         8.85918511869401    9.03157222808450    4.50342916517710
C         8.28122445600401    8.68733555780579    1.75836837811349
C         7.03152116136490    8.58240375995418    0.88414838746089
H         6.19769134312295    8.20011391134435    1.46799499350135
H         7.20296039585126    7.89972298560588    0.05706330972862
H         6.74115793914150    9.55131993053489    0.48744232805378
C         8.44401237682481    7.36367540674756    2.52068415772428
H         9.40742268004534    7.29688883200937    3.01972882724802
H         8.37093503504540    6.53231258248663    1.82563900305414
H         7.65442433233376    7.24607376710316    3.25958894466426
C         9.54169569139873    8.90908586643543    0.90590695512375
H        10.39954950391389    9.08523670059373    1.55900118320075
H         9.73305201022762    7.96822335210095    0.38955071631433
C         9.49843515960781   10.00842563268257   -0.16077966830184
H         8.57916969684689    9.91497583671834   -0.73968913459480
C        10.70065657004712    9.82992293237035   -1.09278560873687
H        10.66196284226953   10.50746882291174   -1.94042640186880
H        10.71275733171822    8.81893453392269   -1.48875648832268
H        11.63409199593425    9.99316269810735   -0.55643620047713

