49
CSD_code = LIFLAN | q = 0 | S = 0 | Stoichiometry = C12H28Cl2O4PdS2 | MND = 4
Pd        1.31112595938312    2.04975578254511    3.49352468197253
Cl        1.50396939856546    4.09035923903633    4.51630161318901
Cl       -0.92806792086833    1.48467290199107    3.48838735022882
S         3.40963110770640    2.71880009694354    3.53780122504041
S         1.02141978458912   -0.10652062706770    2.98056084314719
O         3.51485397386779    3.72380000480954    2.28822543125048
O         4.14849391494410    1.36737039750143    2.95898552089728
O         2.34254018415677   -0.78350628690197    2.25670691171072
O         1.32991888120667   -0.36679351913107    4.55489576814289
C         2.51780005520008    3.76622167032096    1.25383737728758
C         2.82632253649477    5.00009018570136    0.41695108784934
C         2.53588184895382    2.48395282251073    0.42262760949394
C         5.56949921858047    1.42301642445954    2.84094852612950
C         6.00577857359350    0.19466085508743    2.05390256818961
C         6.21484904547507    1.47722073115616    4.22140782464290
C         2.16684310635794   -2.11536968655103    1.77643141986660
C         1.32892985345734   -2.09912176693755    0.50109581226610
C         3.54760554824014   -2.71516670311213    1.54339353102036
C         0.57043120517429   -1.36287032892209    5.25840717006476
C        -0.23477068588081   -0.64522398457026    6.33403805603252
C         1.53864498116462   -2.38657494823420    5.84101064303267
H         1.52054866825143    3.88479087362892    1.73459171554213
H         2.07034200009208    5.12110667583873   -0.35321794437308
H         3.80265747204907    4.89869144024981   -0.05096331725548
H         2.83257487771300    5.88148686910941    1.05164145826452
H         1.75084284786544    2.52682452954156   -0.32836546198856
H         2.36694526395726    1.60825429610967    1.06258078344851
H         3.49869592725976    2.37721282715529   -0.07447461866368
H         5.82708677878072    2.33470864321143    2.28127317552780
H         7.07927687759031    0.21837696747317    1.88806161074455
H         5.49505180155314    0.16819521973795    1.09542050266472
H         5.74594681110025   -0.70247376491803    2.60800469369119
H         7.29657354922297    1.52102262074313    4.12940823574522
H         5.94131411008853    0.59169287741192    4.79030229235421
H         5.86954564303831    2.35736418368904    4.75994446222115
H         1.64066334219698   -2.70115374130576    2.54530584349026
H         1.16471619848353   -3.11231605546680    0.14517470681321
H         1.84266628288621   -1.53014263128280   -0.26983781481045
H         0.36632692678357   -1.62959029577956    0.69473570905997
H         3.45240903847641   -3.74054752187394    1.19693605874880
H         4.12007382467682   -2.70374736130079    2.46682375365024
H         4.07983810378770   -2.13236281379307    0.79723831560662
H        -0.11100137888436   -1.84756130568554    4.54477346274808
H        -0.83399988861643   -1.35392395374164    6.89837190582887
H        -0.88983663978543    0.08863893717193    5.86889786321986
H         0.44275797420865   -0.12634517867505    7.00883154898928
H         0.98839050046202   -3.15311615508151    6.37956222841038
H         2.22307522865134   -1.89255846482712    6.52604978795014
H         2.12011728778796   -2.85840097806687    5.05148807081888

