33
CSD_code = LIFLIV | q = 0 | S = 0 | Stoichiometry = C7H13F6N2OP3Ru | MND = 8
Ru        2.02938712832436    2.46749428726111   -0.41858070468892
P         4.01396618866842    3.44878715862853   -0.19444788363145
P         2.30808440195621    1.48521413966711    1.55770716208780
P         3.10695912383882    0.72332323177830   -1.33315840929443
F         4.15445600016029    4.50357680890001    1.01871174684707
F         4.33898934515550    4.62711630371632   -1.26624666511268
F         2.38559108021326    2.46710067803153    2.83600718781432
F         0.98721393259876    0.76868614751008    2.17791755756805
F         3.33645042102488    1.01142865713775   -2.91895100652076
F         2.04271593806728   -0.47197934153844   -1.62824320750337
O         4.33507088780300    0.10315005879834   -0.81620463464304
N         5.42822360809409    2.66291641978826   -0.03160997421698
N         3.52020366030495    0.46639585801230    1.93017332724187
C         0.85477221903447    4.32892745081323   -0.74210105323050
C         0.08841531794977    3.44949435985152    0.04688233518968
C        -0.13787352751699    2.25499923842944   -0.71119927322720
C         0.45913097727916    2.43162976282034   -1.98461957694769
C         1.11240645317895    3.68949664376223   -1.99800533286289
C         6.71674104044354    3.34102846370687    0.00303798350751
C         3.59180607845464   -0.25004417765296    3.19637980493472
H         1.11439130551993    5.34972981525749   -0.49276636427794
H        -0.34769864992916    3.67222773525874    1.01217068398094
H        -0.80671779535553    1.45179025123587   -0.43081187934921
H         0.38434154428226    1.74750337040031   -2.82004740038297
H         1.55683942052793    4.16337152413352   -2.86345398326752
H         5.43389383307681    1.69844150765535   -0.34618557271980
H         3.98530101994811    0.03237005524622    1.13963516286358
H         7.38130732983558    2.81418217736150    0.68705956744147
H         6.56787032721236    4.35675817752668    0.36558363210501
H         7.17813094435505    3.38296707000568   -0.98537765769082
H         3.07408548351092    0.33190389004552    3.95713550812697
H         4.63607461808152   -0.36267875491794    3.48549430089099
H         3.12867034390342   -1.23640896863025    3.13051461897564

