76
CSD_code = LIFNAP | q = 1 | S = 0 | Stoichiometry = C24H49FeP2(1+) | MND = 9
Fe        1.93016482362677    1.18389629584155    3.55687193031456
P         2.23569776043933    3.02106106931976    2.40584117112067
P         0.10035344931646    1.93285663486493    4.49829253883435
C         3.80529958507046    0.27186371212653    3.20595404641557
C         3.52672103530026    0.29499536814200    4.60481778677085
C         2.32195250348311   -0.43491515370323    4.83290940677038
C         1.85786769855414   -0.91009998015062    3.58036834882069
C         2.76891660958300   -0.46056887547343    2.57262054757772
C         5.07658314578742    0.71301849111184    2.56910344622230
C         4.45303820383499    0.74721000088365    5.68043967768159
C         1.80712054480514   -0.81301471297151    6.17683191310975
C         0.82786096498350   -1.95521325876950    3.33380203218905
C         2.73278020474756   -0.94903489188487    1.16571703224656
C         1.04082305649932    4.22136893867219    3.14579721253089
C        -0.22610492535289    3.54785810622280    3.65602601328889
C         3.84362262317973    3.96032186163772    2.53930116460259
C         3.82924890672190    5.31732030542778    1.83621405234301
C         4.25487492069101    4.12934854207742    3.99736678221760
C         1.85616884357631    3.12965798606282    0.58378241257005
C         0.50214935464873    2.51449559026131    0.26537658358187
C         2.94968584468527    2.45653536082022   -0.23613309070947
C         0.11453212133640    2.35456203046348    6.32091006133870
C        -1.17247959545813    2.99677161382029    6.83750023221072
C         1.30472681165500    3.24138468949762    6.66452063494925
C        -1.57495431958000    1.14323707546962    4.26196181001167
C        -1.76707055122624    0.70677718652471    2.81523655842908
C        -1.81808844657440   -0.03708413119828    5.19638209718806
H         0.96262915870409    1.06319363114459    2.53765095199966
H         2.38341004166387    2.15542355998256    4.47007587697057
H         5.77880218529409   -0.12271536888152    2.56064617544603
H         4.91676422712394    1.02793352749638    1.54187082925100
H         5.53527217141208    1.52647758703324    3.12284829884769
H         4.99305672826590   -0.11799026563074    6.06721513140147
H         5.18426761541232    1.45981359192615    5.31079806791012
H         3.91226788041452    1.19928437966436    6.50838368137902
H         0.73269191496532   -0.96770175636778    6.16317425382283
H         2.28012926949151   -1.74357274311025    6.49537988337644
H         2.04700170761909   -0.05017153808747    6.91200341151577
H         0.20698021691573   -2.12648656541551    4.20655569490258
H         0.19582586642679   -1.70510661459629    2.48602215808681
H         1.33465035994820   -2.89304336215413    3.09843673976449
H         1.80316263386722   -0.67194279276173    0.67421407310353
H         3.57008798313754   -0.56967238254578    0.58846596202417
H         2.79292808583204   -2.03806639503230    1.16591060741510
H         1.56859202429331    4.68655345279731    3.98112580036193
H         0.78893995692495    5.00066911642100    2.41960210787306
H        -0.88770743619049    3.32430445784790    2.81795265554409
H        -0.76528248995539    4.21749686181450    4.33230257490941
H         4.58512111118114    3.32357805038042    2.04753319561055
H         4.77907325671676    5.81682560319422    2.01898223861584
H         3.71198481425475    5.22211570094316    0.76075622802861
H         3.03972157186950    5.95683448568643    2.22262751479742
H         4.06763841097610    3.21652538016533    4.55606005238042
H         5.31380725534550    4.36913233070561    4.06431334218750
H         3.70430784353352    4.93888701741649    4.47037569400884
H         1.82085449404450    4.19849199307504    0.34271922753761
H        -0.30809242419031    3.09977796612393    0.69179860545857
H         0.35483663640107    2.47030426675914   -0.81139758448489
H         0.44670829690029    1.50282407953870    0.66334620538151
H         3.00569616714660    1.40462220151413    0.02300507167388
H         2.72008643653063    2.53365267552321   -1.29717197947451
H         3.92102730229728    2.91701486202610   -0.07263139938772
H         0.25090919453641    1.39198904047342    6.82494284023026
H        -1.06887916306640    3.17706112270558    7.90607119217512
H        -1.35893209376660    3.95708930691860    6.36293325059100
H        -2.04254110304520    2.36407186244609    6.69371118130810
H         1.42668943669382    3.30451357203977    7.74366483347518
H         2.22177358382099    2.84087062187760    6.23812813656562
H         1.15893253717356    4.24956963449633    6.28385151101374
H        -2.29686112076502    1.93730733518039    4.49210291384110
H        -2.66626754316876    0.10166262390676    2.72570629738611
H        -1.86775168812901    1.55291552572273    2.14156007210458
H        -0.91567899180427    0.11477193274773    2.48941046214418
H        -2.85856022883449   -0.34948593011898    5.12603117411560
H        -1.19980647839253   -0.87952112532609    4.90552016083547
H        -1.61385879016209    0.20720762723598    6.23540222334773

