35
CSD_code = LIFQUM | q = 0 | S = 0 | Stoichiometry = C9H19O6Ta | MND = 6
Ta        0.38373584979770    5.24815297833853    9.50843316249704
O         2.01761773429209    3.77725063039267    9.89470246893469
O        -0.44418210973401    3.39046064186404    8.57397029649338
O        -0.35460338187505    4.63362633484799   11.06512993053717
O        -1.15692944385463    6.18292696568857    9.02454165285317
O         1.36636241677929    6.58133735395601   10.37426995339649
O         1.20435346329720    5.46014793813636    7.91709645204458
C         2.37449952667716    2.83358686809458    9.13652213570429
C         0.21388134325584    2.49302892763466    7.97930456386849
C        -0.64976584320992    3.60465021308776   11.93773744910932
H        -1.17453556304737    3.98189035053665   12.82659756181356
H         0.27626628242068    3.10847169657743   12.26087799190524
H        -1.29005478429235    2.86215745532211   11.44090543179723
C        -2.34073658542474    6.55681790717828    9.63865584321618
H        -2.32317208597637    7.63082911623867    9.87079091717225
H        -2.47632414973305    5.99328700982961   10.57370401620987
H        -3.19280224818953    6.35906832229484    8.97506887857749
C         1.33785611775994    7.18243977964885   11.62179306196107
H         0.79370975788535    8.13593916733572   11.56830685222566
H         2.35879831014104    7.38364697916965   11.97192443627996
H         0.83256592960487    6.52699754454322   12.34674549040686
C         1.83674035371759    5.57504601012165    6.70129926517872
H         1.76167992425283    6.60481009996000    6.32740965336453
H         1.37563267932434    4.89993283802380    5.96468328846508
H         2.90086298032332    5.31333853613480    6.79727092934306
C         1.55984776499019    2.18826621710415    8.20198189757932
H         1.99520557385644    1.38622837888634    7.62541114522972
C         3.79698922476103    2.32725073391956    9.27715546374923
H         3.79261946579485    1.29190366490634    9.61165524125557
H         4.33065192375165    2.93773874412946   10.00023858060970
H         4.30548485199899    2.37168435146014    8.31700144546957
C        -0.52716468865785    1.64337423979679    6.96506568780661
H        -0.58011952763191    0.61360164270960    7.31244542833150
H        -0.00378571290733    1.65335453882792    6.01226610861696
H        -1.53368535014761    2.02995582330271    6.83313731799729

