63
CSD_code = LIFVIF | q = 0 | S = 0 | Stoichiometry = C26H34MoP2 | MND = 10
Mo        4.15246693144558    3.73812196732467    2.05853678210394
P         4.96242085105391    2.02339644689212    0.62321216141998
C         6.89312677567598    3.73824835268556    6.28641006437292
C         8.00216286954668    3.73822872211591    7.14384712541777
C         8.49153702095013    5.00616446567803    7.52512001984365
C         7.88490794662142    6.14611931988129    7.06240219900851
C         6.76861220452112    6.11719391336112    6.20283740954861
C         6.26977444588521    4.90462367734379    5.81500669694879
C         5.13591995575431    4.51561820792718    4.90182456051275
C         5.48313305300841    4.85576064240145    3.46366840264295
C         6.16058502242342    3.73827627730451    2.88053863163378
C         2.01505401153204    3.03638464632212    1.43397264845868
C         2.28904383855978    2.59330816812622    2.74922429175265
C         2.43432648642484    3.73824930500053    3.56504807689020
C         6.74117332643148    1.63413775586810    0.42162006743292
C         4.33200085137250    0.36475043630741    1.08438744849770
C         4.48294432218163    1.99616095162232   -1.14985367138313
H         9.34496976271736    5.07152486870698    8.18553782325806
H         8.27081914494622    7.10982214091307    7.36637772054594
H         6.32721618978495    7.04662906167121    5.87112706570445
H         4.20277736680884    4.97505608288757    5.23740785086908
H         5.89077740740725    5.85647911703295    3.32339335858492
H         7.13966823915068    3.73830211615545    2.41125176338281
H         1.72050184751759    2.40813212933363    0.60167854810185
H         2.19792518262381    1.57544202555905    3.10083732626148
H         2.43966952751254    3.73824438972909    4.64317780639027
H         7.17699255932548    1.38323323785657    1.38614612744763
H         7.25078911265294    2.50927263922075    0.01987553980741
H         6.85916910737517    0.79551714295370   -0.26570504783446
H         4.53946808089818    0.17809531552090    2.13509291844131
H         4.79494296495837   -0.41173095420734    0.47484461895642
H         3.25408055593401    0.34889925698080    0.93282900139828
H         3.45107392126557    2.32461559860601   -1.25421426543538
H         4.58890451614842    0.98976636087774   -1.55565630947295
H         5.12524534596328    2.67467581524608   -1.70560147739549
P         4.96233971626223    5.45313965820668    0.62320741486669
C         5.48321881532877    2.62073491291311    3.46370853543374
C         2.01510508256690    4.44015231273121    1.43398703123281
C         2.28915562414059    4.88318802730051    2.74922555338061
C         5.13592389812942    2.96091913021085    4.90183090320283
C         6.26975392543176    2.57188956190370    5.81500692416707
C         8.49151705129760    2.47027774953623    7.52509733532469
C         6.74109272811355    5.84237329811495    0.42144558147368
C         4.33198325739613    7.11185748444219    1.08432296708070
C         4.48275904616917    5.48033969851292   -1.14983751308754
H         5.89093295401199    1.62005290765406    3.32346845769364
H         1.72058123689679    5.06843034795741    0.60170065935787
H         2.19809425303448    5.90107119194672    3.10084857450329
H         4.20277045838493    2.50148193662600    5.23738470868807
C         6.76857088818738    1.35929956439591    6.20280710074871
C         7.88486980124309    1.33033847721099    7.06236302076156
H         9.34495268548920    2.40489026438426    8.18550878446476
H         7.17697086688618    6.09330791035348    1.38593373686520
H         7.25064603158744    4.96719729425197    0.01971282292570
H         6.85907486475453    6.68095328239046   -0.26593358219258
H         4.53951814782679    7.29854635669563    2.13500223165168
H         4.79490578737363    7.88831097396415    0.47471546406014
H         3.25405883887557    7.12771474377389    0.93281693853089
H         3.45087675964406    5.15190786601542   -1.25412933408429
H         4.58871790297318    6.48671332163547   -1.55569022154874
H         5.12500517131597    4.80178845132155   -1.70560338965475
H         6.32715507312967    0.42988016538953    5.87107929524910
H         8.27076838716786    0.36662350895552    7.36631671478895

