77
CSD_code = LIFWIJ | q = 0 | S = 0 | Stoichiometry = C38H31O7Y | MND = 7
Y         4.39625934117692    5.80372356360813    1.59137825219112
O         2.60039522354073    4.67445375811240    1.21405705935123
O         2.91108184470506    7.39541522511868    1.06695464329807
O         5.00106823713181    4.53177136625301    3.26654302313209
O         2.42218943051679    6.32154018769541    3.37906679684624
O         5.24849017503826    7.14235754376546    3.04383420499761
O         5.68257342987706    6.62328152319606    0.32709421295324
O         5.12619163521447    3.90250416541627    0.69055401239078
C         1.32619486307659    6.84799625813333    2.77406140429961
C         1.72670169370675    7.41168972260350    1.43113253471017
C         6.93960481157786    3.19834702960768    3.46322566815972
C         7.34389889633994    8.16190847807593    3.39364889164848
C         6.26906477197625    4.52570051527226    3.40612782783333
C         2.37743754050915    3.42500576953177    1.29473116660271
C         8.42450899040425    8.26527476731704    4.26470920673349
H         8.64608151856589    7.45923123605351    4.94840038695896
C         0.03508680015965    6.75756659060563    3.22964069244894
H        -0.15085986900050    6.34384533624455    4.20810516082939
C         0.54463157996258    7.82558449680149    0.92268326711863
C         6.46899469347452    6.96071360417641    3.32562282748999
C         6.26437929571044    2.12334071426077    4.03502359029742
H         5.28224392702995    2.29292242374959    4.45198309309492
C        -0.05969687755311    3.87028275205138    1.23937243097323
H         0.17821726475162    4.73905037882447    0.64302504284734
C         0.97973224001517    3.03692011787751    1.64768081908034
C         7.03882928021302    5.68852299240118    3.53074011161014
H         8.09632232813764    5.60365892116654    3.72025877584187
C         4.67329958487425    2.72974099516020    0.79423762178941
C         5.46376558647349    0.34277338682051    1.13761651077382
H         4.60459719678970    0.12909732587244    1.75428673243234
C        -1.04143148394214    7.22596497015181    2.48374728592662
H        -2.04673659681598    7.21494965364869    2.86689837065840
C         3.32597528594147    2.42719725213417    1.07263270145476
H         3.00891045215723    1.39847035039886    1.08914446950541
C        -0.75803851009182    7.81044014803468    1.25493141120023
H        -1.51580117707589    8.27945030296050    0.65232428611105
C         9.19670396364706    9.41307596861628    4.27721256808278
H        10.02972699920570    9.49277266095894    4.96084421064580
C         5.63694003895959    1.61012357357033    0.58921423664411
C        -1.36662977366553    3.58614931283021    1.58602432919502
H        -2.16416513123593    4.23609470715298    1.25684387611184
C         2.19256093683958    5.32730674722486    4.36669174142582
H         1.50363144776887    4.55833729149662    4.00350679752526
H         1.79675027107946    5.78268107207764    5.28109193019375
H         3.16797915073076    4.88439818394182    4.56665476796469
C         0.68548182498143    1.92142818578842    2.42645477672254
H         1.48355456906216    1.28466031489997    2.77722835152461
C         6.99399918910908    6.32045191174105    0.06486749414660
H         7.27503341364085    5.30498487290315    0.40031992129241
H         7.67410568214204    7.04119807257005    0.55944580504046
H         7.18803976087865    6.38560500425637   -1.02100111600274
C        -1.65162716053089    2.47028769046381    2.35628414102683
H        -2.67206807278396    2.24697605402774    2.63108985008291
C        -0.62348761394082    1.64262921869911    2.77736931188916
H        -0.84355733903854    0.77725381270392    3.38559382980949
C         8.90524918714804   10.46007153235635    3.41783266906362
H         9.51571738737033   11.35145265730477    3.42747006721966
C         8.19279755586518    2.98734008177484    2.89614908408206
H         8.70878910420400    3.80457593882066    2.41473752193978
C         6.84427968485724    0.87006190156649    4.07027357276845
H         6.31921674282223    0.04443221794862    4.52838016452342
C         8.09536114880479    0.66958253662214    3.51107692246544
H         8.54658957337335   -0.31143577421966    3.53014560488724
C         7.04589449622508    9.22544155099820    2.54297531097912
H         6.20328193046863    9.12396919801136    1.87288818541608
C         6.78300469510236    1.86618691443764   -0.16135015286694
H         6.91400106321243    2.85555920963831   -0.57437684359818
C         6.40640727496851   -0.64581526151709    0.92238613831244
H         6.26307944189971   -1.62580967628948    1.35433319625592
C         7.72148838542461    0.87662147312386   -0.37797531340042
H         8.60189225630316    1.08716091465240   -0.96759910281828
C         8.76206300742762    1.72734806988865    2.91650421625738
H         9.72961278991384    1.56804414455485    2.46348656281868
C         7.82855598908776   10.36413734520127    2.55027876255013
H         7.60003549342421   11.18061026534184    1.88094909633624
C         7.53323696234558   -0.38519645470891    0.16128275697156
H         8.26481026819507   -1.16214726480198   -0.00655973698008

