73
CSD_code = LIFYOO | q = 0 | S = 0 | Stoichiometry = C32H32AgNO7 | MND = 7
Ag        2.02721103867492    4.14617141380865    2.53192711414822
O         0.22398980080408    7.43490374031869    1.13686756929742
O         1.82467291913959    6.02535933484465    1.07292456600487
O         0.26448565529819    5.80486951788735    2.51191045762200
O         3.89437579292248    2.55828356005707    2.41447473055561
O         5.01266493710414    3.05302290480804    5.35030307323497
O         0.73777036127782    3.16146696819414    4.41091251161246
O         2.15223705486011   -0.04359219809065    1.77190092865635
N         0.75990184248039    6.44258651707956    1.56460397046488
C         4.55037492371248    3.17336935664622    1.35290551740506
C         5.49196521994268    4.17409065504598    1.61312930642565
C         6.08506404387396    4.82751095994706    0.54247381975148
C         5.76446652309953    4.49035392722696   -0.75863671779431
C         4.84824338283901    3.48585708349335   -1.00515081979955
C         4.23483800882125    2.81011622393857    0.03993358436699
C         4.53011430806945    1.39539647583170    2.91013586858330
C         5.86733194236230    4.53582100657579    3.03016520693301
C         4.24133044815330    4.13095492156517    4.92895262787324
C         3.04828313440753    4.42098848208339    5.59633839318915
C         2.35036126916376    5.57280301273189    5.25563062732269
C         2.79504167796300    6.39430113759674    4.23156256906113
C         3.91575811032694    6.03563822498706    3.49710393559821
C         4.65485097349276    4.90742810231133    3.84392272791342
C         5.98682241873354    3.41153118210068    6.30659320666747
C         2.52380038595014    3.46939799855095    6.64058577305382
C         1.25725646989631    2.01323788023084    4.98978619985256
C         0.91095221994908    0.76179627594149    4.46856294000564
C         1.51370757579075   -0.37015193097406    4.99857731067005
C         2.42919496010201   -0.26920498362855    6.02911222408284
C         2.74805013552855    0.97035399581089    6.55068378487699
C         2.16812525796323    2.12558315270583    6.04583582412854
C        -0.47430573461234    3.63477966628952    4.97006328963209
C        -0.10094927930725    0.62481670168653    3.35333859634939
C         1.45663749179129    1.11532430047968    1.44398060418776
C         1.92826854594098    1.95353924249968    0.43131805850367
C         1.16797585146936    3.05868500909366    0.05689127869097
C        -0.05143841973605    3.31161011039269    0.66765523963854
C        -0.47026866821665    2.51861877755000    1.72474887157442
C         0.28961491212548    1.43386157457778    2.14362741787755
C         1.75180933554183   -1.16256754530029    1.01050108694275
C         3.25128099255411    1.70041969758519   -0.24364080555476
H         6.80615212649207    5.60934992177220    0.73208075453460
H         6.22792673055304    5.01229876935294   -1.58187297226259
H         4.60378033120659    3.22065373257975   -2.02354338886550
H         5.54521814958117    1.61118502165722    3.25189084441241
H         3.93222563246255    1.05686487621552    3.75203568211375
H         4.56638944908487    0.60743266104801    2.15428401396098
H         6.56568298988881    5.37637598686228    3.00582562099128
H         6.36996427181112    3.68543440965374    3.49651769917976
H         1.45895846912728    5.83987968233134    5.80346293323076
H         2.27282955249598    7.31327896942473    4.01131079942901
H         4.25133772365967    6.65721070327599    2.67894210450306
H         5.53487148594327    3.84789926264381    7.20428102908352
H         6.70673349794044    4.13216012102102    5.90135329423720
H         6.50501200559916    2.49143586560162    6.57327752632467
H         3.27132697052139    3.30915569698555    7.42062158750991
H         1.64200389937698    3.91075175937417    7.11156503860871
H         1.26471052615869   -1.34087975284837    4.59587027715908
H         2.89375617394515   -1.15861785191483    6.42791891440303
H         3.46056267944225    1.04489521258553    7.35898313825443
H        -0.35564855027253    3.88658063018577    6.02847790017253
H        -1.27321983860554    2.89209262730424    4.88092830061864
H        -0.72629091292744    4.52606093745455    4.39937128925867
H        -0.18121593452925   -0.43330272502450    3.09497173109634
H        -1.08199577087301    0.95729634615251    3.70141417083213
H         1.51434289750379    3.69071341765934   -0.74870394452061
H        -0.67678738272945    4.11949700661524    0.31827997929295
H        -1.40504261426570    2.73977146822212    2.21802849908550
H         2.34192358149917   -2.00368685172463    1.37182739166584
H         1.94292678272581   -1.01458933723734   -0.05879407671144
H         0.68643596678947   -1.38316575760267    1.14010460157808
H         3.66498428336343    0.75393386458760    0.11168051031284
H         3.10517700677000    1.62670089131431   -1.32440371911393

