85
CSD_code = LIGBIP | q = 0 | S = 0 | Stoichiometry = C40H30FeN12Se2 | MND = 6
Fe        9.92253862877166    9.31043832011294    0.00037472972716
N         9.50904687769994    8.26815694458934   -1.62752070388091
N         9.97918143711343    6.74371737532850   -3.35870068086313
N         8.13282706602395    9.97309501629834   -0.33181476232652
N         7.32709038396843   10.87361571336031    0.21079251426604
N         6.51715843791986   10.35212951938732   -1.76192720874592
C        10.24972308218124    7.33398580934653   -2.21613710249917
H        11.16107671109885    7.04841841244195   -1.70836697108284
C         8.86786160182074    7.10209455651788   -3.99152528095904
H         8.67176860789531    6.60225697629611   -4.92974966675861
C         8.00824192738086    8.05948928706293   -3.48360380930698
H         7.10682036888715    8.34608693219575   -3.99911450489490
C         8.37065999870355    8.64190702714838   -2.26974734614749
C         7.65466397770491    9.63803658123701   -1.52787420989742
C         6.35373132759280   11.11733660037374   -0.63804945915033
C         5.28902417873013   12.06960023502151   -0.38221340268214
C         4.92163413084406   12.29689195483203    0.94525392837485
H         5.43098551965508   11.75349580276012    1.72545055248172
C         3.92140829767462   13.20112438764025    1.24270418876208
H         3.63881477398240   13.36894543824499    2.27101523796902
C         3.28324842092161   13.89241434710306    0.22476845479120
H         2.50001806856154   14.59815698490086    0.45773604820528
C         3.65984573813569   13.68598876686163   -1.09212743293728
H         3.17758813104615   14.23709940498896   -1.88554544583842
C         4.65902082015429   12.78171646616098   -1.40116344139375
H         4.96313889845342   12.65313866541626   -2.42835073429205
C         5.69297862683313   10.30447528928559   -2.91021136884244
C         4.38766957027230    9.84141221732553   -2.80060199529891
H         4.01162189827066    9.51672002144284   -1.84189645826791
C         3.58472082409021    9.80824840285052   -3.92379322412372
H         2.56977735906276    9.44892761455115   -3.84091864455601
C         4.06314493142232   10.23068579178251   -5.16093182852061
C         5.37191847114860   10.68996284575842   -5.24937135421489
H         5.76061011605646   11.02642043863402   -6.19863485399765
C         6.18955029738447   10.73024571080385   -4.13499742027012
H         7.20216199144031   11.10022811111520   -4.20612879003895
C         3.17471265824215   10.18611240748811   -6.36421706880548
H         2.26845236461043   10.76325336857398   -6.18724380691994
H         2.87691817235520    9.15984442266335   -6.57579146629548
H         3.67996238570844   10.58839799933599   -7.23787201708076
Se        9.81841033221352   12.19532488069573   -3.53805876990315
C        10.24695660761333   11.31382358071108   -2.12155452420893
N        10.50908283317966   10.70157479340224   -1.15874168995846
N        10.33640414773103   10.35335224552185    1.62802038691933
N         9.86833376091593   11.88045053611612    3.35733833618618
N        11.71194826278947    8.64764525787694    0.33257433215977
N        12.51768792902414    7.74709976356063   -0.20996880028838
N        13.32779455308893    8.26878589794019    1.76259469277281
C         9.59655029742675   11.28860257268819    2.21585499721704
H         8.68527711640761   11.57432519669933    1.70805310938891
C        10.97973056945050   11.52206571521756    3.99004457215080
H        11.17678451046172   12.02319981098639    4.92738113136897
C        11.83820458840981   10.56312811029290    3.48317114711561
H        12.73951286222281   10.27626605409090    3.99872745687591
C        11.47488697815747    9.97963688122756    2.27007265487454
C        12.19026931586643    8.98287613850137    1.52855751097563
C        13.49119611667250    7.50353737105138    0.63878533183942
C        14.55629554511167    6.55187729207203    0.38245217123639
C        14.92238708745421    6.32425255369315   -0.94532818987737
H        14.41157560551955    6.86679423891895   -1.72515902616375
C        15.92296223037433    5.42065161699446   -1.24347652401639
H        16.20453687032003    5.25255957504101   -2.27203606357615
C        16.56262727572524    4.73018402742494   -0.22590586106044
H        17.34632426656706    4.02510575877482   -0.45943322933382
C        16.18748589607927    4.93708760663601    1.09133151640779
H        16.67136792017763    4.38693201701561    1.88441085831771
C        15.18812305248118    5.84088837993649    1.40106708412623
H        14.88517742198221    5.96988092172097    2.42858881889564
C        14.15224234666885    8.31752614268722    2.91067779851689
C        15.45622233780241    8.78427718843793    2.80093594599734
H        15.83111787248683    9.11033950736785    1.84225148623346
C        16.25925856789880    8.81952973317447    3.92399589929809
H        17.27309181179604    9.18196339054286    3.84105531317364
C        15.78225459408911    8.39543268290065    5.16111038913333
C        14.47490652999996    7.93208570312674    5.24960033483241
H        14.08739521624307    7.59414881047194    6.19881830207641
C        13.65714399028706    7.88982421048387    4.13538029445784
H        12.64553214570353    7.51711463488203    4.20663870487378
C        16.67057566938999    8.44299241799793    6.36436317681439
H        17.57974724315971    7.87068202954033    6.18669006107196
H        16.96316165781678    9.47054242893277    6.57705639673810
H        16.16740982305905    8.03724950933841    7.23761759488973
Se       10.02643388924651    6.42659898303642    3.53965442727554
C         9.59779709529325    7.30772966710258    2.12294094810561
N         9.33579817583532    7.91968199791053    1.15989630238360

