85
CSD_code = LIGBAH | q = 0 | S = 0 | Stoichiometry = C40H30FeN12Se2 | MND = 6
Fe       10.36805221373890    1.20702761369587    5.43862863898990
C        10.02059431403226    3.06824870253817    7.73877623690700
H         9.09990942001508    3.35431469828846    7.24908303653548
C        10.40043404516582    3.58065653314024    8.97084848365108
H         9.78565127975081    4.29962663284033    9.48570136238033
C        11.59692304754577    3.12462885778955    9.50991157706618
H        11.97254849836282    3.46452901295264   10.46480179568004
C        11.91697293565474    1.79598131118104    7.71512052421502
C        12.64541913607881    0.83948218819348    6.93404167610675
C        13.97188464731407   -0.59099076417329    6.01986342174635
C        15.04925737142299   -1.53007026520903    5.76410247584496
C        15.48547028957536   -1.69861672102186    4.44984838843525
H        15.02037766442176   -1.11753454694939    3.66889007398866
C        16.50094329795028   -2.59069871818154    4.16597005005442
H        16.83942857745516   -2.71304341409891    3.14810306933619
C        17.08423165548626   -3.32740102484371    5.18479368413377
H        17.87950616522189   -4.02292998854419    4.96214766780734
C        16.63881168931392   -3.17857695124319    6.48801287426267
H        17.07980049376405   -3.76430983558943    7.28044970884262
C        15.62468091989168   -2.28657961975399    6.78315583082317
H        15.26611877070126   -2.19678089237125    7.79688201220455
C        14.59711423021147    0.20710200148058    8.31638534738866
C        14.04965905944029   -0.09728068712520    9.55339754866216
H        13.01528185032282   -0.39580585977271    9.62596485157254
C        14.84700284654890   -0.03180198593878   10.68025208180933
H        14.42035820327518   -0.27396467179929   11.64195127280621
C        16.18404343397975    0.33524527947608   10.59201735146124
C        16.71360990079745    0.63670995632700    9.34093747749844
H        17.75102586941883    0.92531135193152    9.25739352067090
C        15.93117981398870    0.57690290048194    8.20493988781411
H        16.34578872906014    0.81424883965856    7.23626482460531
C        17.05280171205287    0.39614614803686   11.80971094938086
H        16.46328269261334    0.28436052815076   12.71549915589970
H        17.58652406978929    1.34382814014759   11.85133795397528
H        17.79503968924983   -0.40131254124095   11.78088451926151
N        10.76834945127124    2.17605470730950    7.09701310586247
N        12.35040653101657    2.23757224931505    8.88156064595652
N        12.17595919995211    0.53287055784236    5.72960804187942
N        12.99908268085793   -0.34349004366538    5.16845700569637
N        13.79042206838501    0.14326862763193    7.15854962235989
Se       10.21088494709560    4.30716740270398    2.08500990328549
C        10.65877915004673    3.33092560401989    3.43089611725955
N        10.94134764640041    2.65774040821071    4.34664250302093
C        10.71528130971972   -0.65444849890733    3.13854896482875
H        11.63604404159412   -0.94040166824122    3.62815697724319
C        10.33501123061774   -1.16736048721800    1.90680241859417
H        10.94958854130556   -1.88656104848018    1.39202652602162
C         9.13836679901393   -0.71149823413417    1.36793680502067
H         8.76253239400808   -1.05160047134851    0.41321171685659
C         8.81893665118231    0.61786943592612    3.16231675861953
C         8.09059776796823    1.57453915432233    3.94331447216419
C         6.76411987908180    3.00503090553735    4.85747876692358
C         5.68687375311955    3.94426270258101    5.11314554783669
C         5.25086095686887    4.11329703332225    6.42738281908049
H         5.71596690590553    3.53240250413501    7.20848042088773
C         4.23557906034804    5.00565259377878    6.71109454270288
H         3.89724704444462    5.12841578143562    7.72897865415641
C         3.65230174384781    5.74213384191513    5.69211109142417
H         2.85719499660303    6.43789973807024    5.91461808932330
C         4.09753982753811    5.59282952369378    4.38889842064831
H         3.65655465080115    6.17840190521406    3.59633213040218
C         5.11146878260892    4.70056455044707    4.09392625819487
H         5.46993690796798    4.61038372211522    3.08018134610518
C         6.13881982120184    2.20662605294848    2.56105327776173
C         6.68621968085356    2.51085752345061    1.32396662191470
H         7.72054624512278    2.80957474579382    1.25133891384842
C         5.88887981974563    2.44488576732152    0.19715156445172
H         6.31543044213074    2.68687111764629   -0.76463876294592
C         4.55191604744299    2.07750242949062    0.28549936390752
C         4.02240061515354    1.77632412362239    1.53665384490526
H         2.98504666286754    1.48750161041001    1.62031157895572
C         4.80483694673787    1.83661437308394    2.67263341149771
H         4.39031291164717    1.59941077804405    3.64138981875353
C         3.68319190031612    2.01650475724253   -0.93221289236368
H         4.27379932867886    2.11974262907633   -1.83831431392005
H         3.14265464323786    1.07254227826546   -0.96935481872770
H         2.94675816991653    2.81950939242875   -0.90765622122473
N         9.96769617216733    0.23795179769843    3.78025276383745
N         8.38517791221508    0.17592054344291    1.99612322862258
N         8.56005749881217    1.88121457436734    5.14771233403365
N         7.73695942766807    2.75757419308509    5.70885243226443
N         6.94556841285384    2.27070779151163    3.71882254671443
Se       10.52698329000634   -1.89254797481398    8.79231165458664
C        10.07813113693460   -0.91803213559633    7.44550683850719
N         9.79464946136533   -0.24443107439135    6.53034781049651

