102
CSD_code = LIGCOV | q = 1 | S = 0 | Stoichiometry = C53H43N2OP2Ru(1+) | MND = 6
Ru       -1.32739870281780    8.68268323899043    5.38739316649267
H        -2.74200313699029    8.41468729987034    4.86036188920957
N        -0.76705240849039    6.71517697045330    5.19535165863784
N         0.58906139265366    8.78258183221437    5.99415297394348
O        -1.93220301415255   11.58725950473881    5.79497761143160
C         0.50874216100340    6.48393658450098    5.58391334050591
C         1.07216876334008    5.20392925424475    5.56263214450929
H         2.09264479057448    5.07195705742639    5.88585010496279
C         0.30795567531238    4.14347684987834    5.12871427402680
H         0.71519032079097    3.14537135450273    5.09803830107446
C        -1.00329270246153    4.38901484823770    4.73187771294921
H        -1.63684631693659    3.58905183372071    4.38613309390174
C        -1.49446894438889    5.67926669877678    4.78400474591289
H        -2.51011982387711    5.89451418077450    4.47988717017409
C         1.22126655095074    7.64961784779738    6.00998380757284
H         2.24752095540476    7.56295122663034    6.35582682249680
C         1.27339225497487    9.94822811836978    6.36134072914194
C         0.70901966498406   10.76644383774069    7.31697029306612
H        -0.23807741551765   10.48980295401456    7.76524774306499
C         1.35239889628270   11.93083590456480    7.74248820507964
H         0.88807897563093   12.53674297358553    8.50485133646743
C         2.55379083499070   12.28910918681215    7.19628590018780
H         3.05863688496584   13.18665427855286    7.51972007930079
C         3.15505593719678   11.49733408712704    6.19699515960655
C         4.38097437761790   11.87624931397562    5.60916646175189
H         4.85360102059736   12.78483425492727    5.95121666729717
C         4.95417439676963   11.12173927533295    4.62605892406383
H         5.89188695241659   11.41850244854864    4.18250524189280
C         4.31442056418104    9.95876302919040    4.17553946986024
H         4.76111190378625    9.37772672488692    3.38300098220030
C         3.13056991109981    9.56005577426780    4.72967022358863
H         2.64604873640072    8.67220197568772    4.34843874459344
C         2.52196614668670   10.29995028353209    5.76465800897985
C        -1.70851663570635   10.47233308742749    5.63886490601453
C        -0.57328990938726    7.47519178745168    2.29197896384741
C        -1.63924978309934    6.85172712932990    1.64993479159145
H        -2.58520033547771    7.36898462622588    1.56588164187155
C        -1.48358703345456    5.58321191143681    1.11994225781582
H        -2.30993804936906    5.10903176348587    0.61241180181121
C        -0.27238411011591    4.92158735174206    1.23998218078391
H        -0.15192484485407    3.93327588503309    0.82367500317340
C         0.78667509668683    5.52835367431014    1.89666628326588
H         1.73049336647812    5.01252715697051    1.99548646060338
C         0.63657094114293    6.79609876327802    2.42653571261344
H         1.46434267709480    7.26740387498747    2.94249109081715
C        -2.06211880860268    9.90063893934131    2.09120090156627
C        -1.81420473795601   10.00865461630225    0.72312258397923
H        -0.91948221913165    9.57124988816195    0.30166354586377
C        -2.71294559514839   10.66895770307072   -0.09140982975342
H        -2.52062686993901   10.74649263864888   -1.15081475254121
C        -3.85712267582963   11.23467437630494    0.45125311217982
H        -4.55553048270952   11.75354673420132   -0.18726642860785
C        -4.10246730480331   11.13441278846252    1.81006846732129
H        -4.99233077494558   11.57525768758604    2.23305949058933
C        -3.20817951607898   10.46917372518219    2.63194395780834
H        -3.40084663546750   10.37717827351765    3.69344534410593
C         0.62172490286806   10.08429016974203    2.69021134049185
C         0.76110797690245   11.29070026489209    3.37213580060592
H         0.06333206467583   11.53940711469225    4.16116042203137
C         1.77489132969698   12.16887405424656    3.04059458546729
H         1.87378989628183   13.10168868607618    3.57447979034790
C         2.66111799220469   11.84767540347061    2.02572869133634
H         3.45659043805889   12.52941139388083    1.76721585440500
C         2.51905756129430   10.65559266882581    1.33526325937742
H         3.20034103067606   10.41047415447783    0.53414550727775
C         1.50056091738622    9.77602135989420    1.65709380960789
H         1.39487336119280    8.85454998016215    1.10197283956072
C        -3.62977616926237    7.05029240495737    7.70481815815075
C        -4.52078376984160    6.84429963377758    6.66143021561808
H        -4.29251211484079    7.23643783564527    5.67976670806237
C        -5.70197427537933    6.15591367218300    6.88364656916452
H        -6.39166439984904    5.99848003988718    6.06806978601188
C        -6.00056308685998    5.67729462322144    8.14730123644537
H        -6.92172052115744    5.14208104127250    8.31943807922178
C        -5.11911801019341    5.89319630536617    9.19665571439324
H        -5.35470403663965    5.52896194424156   10.18510189626621
C        -3.94095275213372    6.57975815477972    8.98106770057854
H        -3.25567931933658    6.75372487669395    9.79992839778045
C        -0.86666240538598    6.88897850933515    8.29127410942538
C        -1.04817463080567    5.50791324228261    8.25001338281017
H        -1.96116174681250    5.09753415234843    7.83964093296637
C        -0.06938713533158    4.66136595448410    8.73697485520176
H        -0.22433626618676    3.59330486703767    8.70870051482684
C         1.10416010814324    5.17972334640328    9.26080213699205
H         1.86394949452469    4.51692509066274    9.64558398404777
C         1.30028731756320    6.55061974804637    9.28959334593667
H         2.21446314863360    6.95971848385373    9.69386890500289
C         0.32773856145010    7.40206200037187    8.79596221052671
H         0.49393486504480    8.47137177933016    8.81329325917552
C        -2.44391998657692    9.30212436355133    8.72665086313177
C        -1.94930264748266    9.35458622945514   10.02396628573416
H        -1.26393442005714    8.60107796503089   10.38512280980739
C        -2.34388310941303   10.38282128074339   10.86410638515966
H        -1.95467050704210   10.42590352002704   11.87031564690002
C        -3.23473829430771   11.34645511183576   10.42301773535892
H        -3.53465478315400   12.14497926007789   11.08404439036720
C        -3.75054688179491   11.28031786249149    9.13717645078296
H        -4.45678138409122   12.02195404253095    8.79686783280793
C        -3.35874804240000   10.26076599388639    8.29241248742547
H        -3.75934848468902   10.18376375499422    7.28689925292303
P        -0.82671009455242    9.06590697192893    3.13477186598258
P        -2.08286305332126    7.99738530057731    7.50784351986696

