41
CSD_code = LIGFAJ | q = 0 | S = 0 | Stoichiometry = C14H16NiO4P2S4 | MND = 4
Ni        7.04434194133255    6.43131215721446    4.66699225153341
P         6.17963509841202    7.86696744101836    2.77981342686220
S         7.52380561741447    8.59715151485885    4.08048119978292
S         4.91700565163660    6.74799752851600    3.86847037838649
O         5.42872917089403    9.01923002689921    1.96419617328358
H         4.94633112858444    9.64070339638532    2.51680766084262
O         8.80945346890558    4.65502593887733   -1.45758890037557
C         6.96191568832540    6.91710481889751    1.45268227883040
C         7.71527888388431    5.81808438765050    1.84200291962200
H         7.81523944741091    5.55790633116036    2.91980251811607
C         8.35163657004161    5.03136739619774    0.90406957827449
H         8.93059643560251    4.18356826983490    1.23273515759548
C         8.23359438679977    5.34803716496368   -0.44981172595349
C         7.47141922871412    6.45743950533620   -0.83318410652071
H         7.39413612654709    6.68280882041205   -1.88499874527708
C         6.83889030198638    7.23864720562840    0.10690121677831
H         6.25244261811547    8.09316904750362   -0.19100996932053
C         9.59727331506303    3.52808336727381   -1.14676399501024
H         9.95009794444040    3.14500155908618   -2.10277166794250
H         9.00952231856650    2.75543057022937   -0.64209163540288
H        10.45655999742024    3.79943233434088   -0.52621220092545
P         7.90471486619530    4.99277799960578    6.55415290475949
S         6.56681751124365    4.26316834576127    5.24691357205506
S         9.16906569584379    6.11680453011489    5.47286007132628
O         8.65481765387774    3.83993424271858    7.36968424810152
H         9.13995706063356    3.22050769615729    6.81715115759116
O         5.24384776134480    8.18334554464421   10.78830089355376
C         7.11495421726554    5.93738553502213    7.88059433722309
C         6.36941405765533    7.04191249291385    7.49177956889843
H         6.28253024992926    7.31125156595695    6.41503002980913
C         5.72567989609696    7.82355346181377    8.42890233878660
H         5.15316552235603    8.67586665795613    8.10063739060469
C         5.82804620769098    7.49599930800424    9.78146406977974
C         6.58232849039634    6.38101898203653   10.16437420961259
H         6.64711655619481    6.14697564119124   11.21505707040236
C         7.22223217007186    5.60487527439424    9.22510966222651
H         7.80206098282236    4.74574268300111    9.52255047831225
C         4.46292334001760    9.31508616970411   10.47767686020804
H         4.10047525514155    9.69166024865779   11.43266713671864
H         5.05862630717838   10.08988619608840    9.98584142341958
H         3.60992085794032    9.05137864197902    9.84533076341722

