61
CSD_code = LIGGOX | q = 1 | S = 0 | Stoichiometry = C22H31N2O3PdS2(1+) | MND = 4
Pd        3.36132578749639    4.25902231393373    3.65022489951536
S         3.95664506173016    4.84931974571032    5.90084713653440
S         2.36501358675987    5.00632641966768    1.63256039184370
O         5.78433520032676    3.10466796648576    4.27149604500452
O         5.49067300822901    0.95191708478964    2.36488481072007
O         2.95567595029083    2.06723236421996    1.37045988580327
N         1.89382035657185    2.84028481293239    4.38103053000496
N         3.46301762755684    1.22237417622717    4.81485989675745
C         4.64980872827622    5.69137595505304    3.12298200342075
C         4.88527432538053    5.92691101206956    1.76920476030937
C         5.88681283274791    6.80677190061784    1.37725828097692
C         6.64742686225072    7.45474615228473    2.33476782358337
C         6.36470746429270    7.28632197066367    3.67849484881790
C         5.35059749157769    6.42242679921809    4.08097522940776
C         4.93696117631160    6.35180226608261    5.52175490672936
C         5.27150684722696    3.73355595857565    6.49520345214082
C         6.37960352106263    3.52304988909461    5.47768780584910
C         6.70774459537509    2.79148672167251    3.24892563403914
C         5.88181300270856    2.28139355759994    2.08157874306107
C         4.68709553132091    0.36691168258731    1.37137310276340
C         3.19225670784292    0.67769728357490    1.51419897359655
C         1.61071380358982    2.37896669487294    1.07204517242547
C         1.55772949506793    3.79434899380462    0.52679688083228
C         3.96871111883079    5.27454665629738    0.77439968606833
C         2.17953900101132    1.63977610171046    4.90866747282650
C         1.19569361013126    0.87982353576008    5.55845951074198
C        -0.08572871542947    1.37605904749207    5.69239361562337
C        -0.35090773505910    2.64513996181959    5.16207679471813
C         0.65724075883635    3.33136841404325    4.52742777048404
C        -1.14781581399127    0.58168634349419    6.37514956591141
H         3.70299344925089    0.27716094815536    5.05478821273869
H         4.10485390165078    1.73816794006440    4.21865800211944
H         6.06382034104000    6.98802213248975    0.32774753521788
H         7.43813600414536    8.12304332278330    2.03226885603045
H         6.91899689697418    7.84048929447712    4.42182024824122
H         4.26411886618322    7.18460810809784    5.74769483620423
H         5.77571228392946    6.39308749882483    6.21725457198100
H         5.66589411637596    4.15492363585478    7.41918015537413
H         4.76666117764035    2.79141362283489    6.70670721567362
H         7.06953586913461    2.75152045216442    5.85030571686856
H         6.95330940551250    4.44751104877102    5.31418881465859
H         7.27430581815941    3.68638529846529    2.95740411891163
H         7.39803638232117    2.00940177590205    3.58933585272922
H         6.46162799178238    2.31775654613394    1.14965311429999
H         4.99351281466088    2.93428366209168    2.00122452224693
H         5.02954126433432    0.67472416542702    0.37513497928334
H         4.81698000161727   -0.71360579800263    1.47222052857278
H         2.82348305767546    0.33217211257488    2.48808431389696
H         2.65859603206670    0.12717192584488    0.72703829780872
H         1.22008655542149    1.68785602675702    0.31060643324393
H         0.98650457685537    2.28706598226768    1.97282853764183
H         0.52293929051904    4.11528856678236    0.41560930948477
H         2.06616541751393    3.86139347665201   -0.43324549172899
H         4.33253648970910    4.30243993896870    0.43875276748523
H         3.78801933482508    5.91809145279237   -0.08883405874682
H         1.45610290948143   -0.08792984799121    5.95904100520997
H        -1.33188803192083    3.08170267330018    5.25095720663957
H         0.48290724008715    4.31963761173401    4.10368527592955
H        -2.05577068850035    1.16513227925296    6.49677802641381
H        -1.38230159642131   -0.30827412073428    5.79207220926336
H        -0.80540836034470    0.25174648491048    7.35405325578599

