22
CSD_code = LIGJER | q = 0 | S = 0 | Stoichiometry = C9H9BrHgO2 | MND = 2
C         8.14454792414003    1.59310634767214   21.95315278879735
C         9.36412856485173    1.21213015452719   21.40194009777843
H        10.01437577384426    0.52502371269445   21.92742362211786
C         9.76618026178746    1.70616188515736   20.16972452584784
H        10.71589499798903    1.39874661628044   19.75746932853745
C         8.95782846025430    2.58540948334035   19.47302098610417
H         9.27000589316150    2.96961111863696   18.51361470485841
C         7.74386303269182    2.97345279483114   20.01004444946308
H         7.10635842251101    3.66052050693675   19.47244601091748
C         7.33533934986998    2.48274557583437   21.24320030678311
C         6.00954545804023    2.91773226351300   21.80852525243208
H         5.50358137037851    3.62331792107772   21.11954979960683
C         4.82779384624860    3.54093939499245   23.60515412741812
H         4.33922829563657    4.49107084512187   23.36122928037168
H         4.88821467662928    3.42236518122086   24.68614699079925
C         4.13482363916362    2.35350692477332   22.89257127221116
H         3.80339563405946    1.57169021744946   23.57443188436484
H         3.29325933766193    2.69476282957962   22.27913132810956
O         6.14615603035091    3.52546612815455   23.07695108433222
O         5.15484375937261    1.82127154934333   22.06003831123884
Hg        7.28586299064873    0.94851097209870   23.86807083677008
Br        5.74637228070172    0.63615757676996   25.85186301113299

