56
CSD_code = LIGJUH | q = 0 | S = 0 | Stoichiometry = C26H24Cl2OP2Pt | MND = 4
Pt        3.50135813233560   12.83970982577644    3.82862893300060
Cl        1.81445449151440   12.69202395821908    5.36977330452627
Cl        4.00005851902401   10.60706055397952    4.00684049751276
P         2.96216772400915   15.02441445232983    3.61147040196478
P         5.19030114699376   13.19145342082461    2.35423557945999
O         4.32702785029962   15.19079345605608    0.75133621593357
C         4.43317883725654   15.93480327575573    2.91892938964003
H         5.09552821878273   16.18864177332377    3.75173185779762
C         5.14946108457037   14.99291468659879    1.89593108866248
C         6.43147023710187   15.70663223226358    1.51101688833111
H         7.40102279479268   15.45561821611885    1.89568161387938
C         6.05534303608467   16.68767663528643    0.70203161283392
H         6.63529123952323   17.45945355615057    0.23599957717964
C         4.54627146850240   16.58330999327169    0.63546525532708
H         4.04091885451249   16.99256289714384   -0.23441516818358
C         4.07215585206488   17.12396736488861    2.01835755340420
H         4.59485528168492   18.04080522879286    2.28679466488611
H         2.99955735822919   17.31158815188038    2.00230276908116
C         2.36665006746154   16.03298646245263    4.97576409833063
H         1.50219643041752   15.58378954121815    5.45332608309810
C         2.91256568210596   17.14669543784753    5.44231543695887
H         3.78378662857672   17.60021150509676    4.99816493809773
H         2.49931457737530   17.65609749908145    6.29819749758702
C         1.63379542780310   15.15542975033404    2.38570118469603
C         1.50985428878744   14.12582482396191    1.45756129112601
H         2.20507158032931   13.29042128926513    1.49268738251065
C         0.50621509383600   14.16717135500535    0.50911232545845
H         0.41133907653420   13.36790516750834   -0.21032734474608
C        -0.38429973157370   15.22937530333694    0.48947890957978
H        -1.17254662511516   15.25955723941223   -0.24808395313767
C        -0.27560273311866   16.24673715437340    1.42354039156882
H        -0.97895724200538   17.06658434572041    1.41564987435557
C         0.72933914200988   16.21317196806823    2.37394660451181
H         0.80541280094791   16.99841136768364    3.11483208162909
C         5.43986185168884   12.35243791544272    0.77021825024094
C         4.91972759239124   11.06579685731270    0.65615136118805
H         4.39172931195412   10.63367319246441    1.49682227207029
C         5.09297148176950   10.35429166740867   -0.51745637912095
H         4.69187075623891    9.35570354863291   -0.60416206568977
C         5.77756863467055   10.92385453545967   -1.57852031636179
H         5.91099671912559   10.37024079736134   -2.49636494371064
C         6.29135079506712   12.20642419368025   -1.46659344481523
H         6.82338092089763   12.64964139775614   -2.29602625363374
C         6.12784452745121   12.92486039040603   -0.29629269902839
H         6.52421608267240   13.92659959316600   -0.21618642345976
C         6.77624068529559   13.07636002052675    3.23239221769469
C         7.98281524759716   12.77653617592692    2.61037161783564
H         8.01057875529147   12.59032004963445    1.54583907546208
C         9.14183459507525   12.70284075416808    3.36335816972232
H        10.07913730380995   12.46575998457243    2.88169823228807
C         9.10171956122629   12.92163368637331    4.73082098430321
H        10.00880084930880   12.85598855125200    5.31298526279416
C         7.89753652031106   13.20714048431570    5.35565386472465
H         7.86395526774100   13.35911973942002    6.42402434128042
C         6.73687089649244   13.28058532302695    4.60954118770095
H         5.77743505225640   13.47119125266616    5.08944685165185

