31
CSD_code = LIGLOC | q = 1 | S = 0 | Stoichiometry = C6H16CoN4O4(1+) | MND = 6
Co        3.86520413897241   11.26535054089123   10.20476334398354
O         4.51510275755011    9.48755014403828   10.46222828843704
O         3.24751333566555   11.39451522919001   12.64967343233736
O         5.52551185909979    7.43770800968627   10.23041614558482
O         3.04561054303707    9.72547119862353   14.20554789946560
N         5.64419641782070   12.04606774341740   10.84928007209320
N         5.24270378906663   11.28844649900563    8.13584290024938
N         3.04373305185103   13.05247290080273    9.98753862268557
N         2.05720482201206   10.59194931293353    9.60418243207271
C         6.51208456971510   12.55813821524569    9.78198410026899
C         6.58912504973611   11.53640479294919    8.64764064416269
C         1.58211909471381   12.92503125395827    9.91208917513204
C         1.28704693305158   11.70993437356970    9.04311725673504
C         5.02208550177926    8.46116581391425   10.33834693468400
C         3.14561047245075   10.56337212646327   13.43642398437821
H         5.50755193894247   12.77188343024429   11.54960537835300
H         6.13786893805571   11.28899015859184   11.32105956660139
H         6.08441484060872   13.48736321628611    9.39983122984470
H         7.52279354615868   12.76836186366937   10.14989481170415
H         7.28013171499977   11.90527681333060    7.87917406891179
H         6.98920807770426   10.59739341559261    9.03833856280686
H         4.96574811191548   12.05563844784790    7.53124673483643
H         5.23470613471708   10.45016129466333    7.56588670546746
H         3.28658938827248   13.72282423563053   10.71340324055984
H         3.38450650839156   13.43155644274019    9.10477713506103
H         1.19990195532014   12.75392177674387   10.92055263141317
H         1.10670208664878   13.82405521211331    9.50456654328426
H         0.21188951909301   11.50239291826317    9.00991840479392
H         1.63847722039701   11.89415370346249    8.02528089152238
H         1.58073672477526   10.25337884979744   10.43996292854003
H         2.07472095747204    9.81777006633530    8.94362593401655

