35
CSD_code = LIGMET | q = 1 | S = 0 | Stoichiometry = C7H20CoN4O3(1+) | MND = 6
Co        0.66445686535724    2.41671265908803    0.86762432620953
O        -0.57633136489542    1.28279310713986    0.22405922451067
O         0.13189532699186    3.02629246309027   -0.73830141265518
O        -1.49290048530628    1.83824142365076   -1.75884461954046
N         2.04006087101246    3.87598070274828    1.13753647089119
N         1.98039121158538    1.32114079277555   -0.09094788162859
N         0.98907609260005    1.51390364935776    2.62921929526945
N        -0.78454994124151    3.49037420799468    1.66161286765820
C         3.47374586298059    3.57499511455124    1.31782196577472
C         4.00779171228593    2.69346536215148    0.19513833635193
C         3.41633173859643    1.28836777953051    0.21774198291330
C        -0.23716716808646    0.96989342775170    3.25320944732991
C        -1.19800609956104    2.08259860862057    3.65105229579541
C        -1.81114012964465    2.76402793082599    2.43439409566650
C        -0.73217784661381    2.02331682746306   -0.85849108534902
H         1.78691016938049    4.56649369398521    1.84352149364211
H         1.94434818660593    4.35878172525319    0.23965967097943
H         3.61006291505171    3.07510511122240    2.28012796145960
H         4.05233032113637    4.50478725461616    1.33680433545797
H         5.09028743996668    2.62087110258323    0.29545132245150
H         3.79322771197507    3.16157523006591   -0.76725228584532
H         3.57099904151393    0.83672779010000    1.20123595967462
H         3.94075356282298    0.67112120638429   -0.51950788579164
H         1.60885348998109    0.36697198561084   -0.11775252211569
H         1.87445036446626    1.66694425057321   -1.05192007427107
H         1.44282114444377    2.10975066709335    3.32309231247434
H         1.61374667382235    0.72166797116420    2.48708733871077
H         0.02469070049817    0.38220930361902    4.13893973241710
H        -0.71962315601436    0.31801006473469    2.52342535869620
H        -0.68419962765548    2.81721507169643    4.27757847492786
H        -2.00242496617419    1.64862969605591    4.24353895083184
H        -2.59372566880407    3.45918389201130    2.75461459191030
H        -2.25724674682619    2.01134759294955    1.78221585798120
H        -0.47793825155326    4.28422273939879    2.22842797997046
H        -1.24679995069799    3.89087959414241    0.83888611724085

