48
CSD_code = LIGNOF | q = 0 | S = 0 | Stoichiometry = C21H21AuIO3P | MND = 2
Au        0.00067644091489    0.00064139480793    4.77903556623065
I         0.00208722126702    0.00192833773332    2.22208892038571
P        -0.00005346509473   -0.00010519758421    7.02904588246738
O         2.41073607443170    0.86450937024895    6.30372844668800
C         1.50222533546374   -0.64515267676923    7.79139068138661
C         2.66524472734429   -0.09493197893624    7.23076351759885
C         3.91170701760185   -0.53906353826289    7.64202698476889
C         3.98706717750189   -1.52723049007553    8.61274014730285
C         2.84264054758476   -2.07471417682180    9.16594443251361
C         1.59497005842722   -1.63949722650796    8.74987541973420
C         3.48688610606606    1.44739512330350    5.60452351724525
H         4.81727958101128   -0.13076079767999    7.22092898020824
H         4.95799379241690   -1.87162809981170    8.93628163092018
H         2.92134068455526   -2.84329106706552    9.91974761512949
H         0.69405683343465   -2.06416657566641    9.17009282479384
H         4.14421497723681    2.00134318487341    6.28153939858011
H         4.06477347490802    0.69209021299611    5.06394180877373
H         3.04013689385586    2.13600734359540    4.88923190713180
O        -1.95408265640042    1.65530704027794    6.30365137660441
O        -0.45695139380879   -2.52001854111036    6.30366937872436
C        -0.19248325656630    1.62346826145951    7.79134004111533
C        -1.30983929699470   -0.97848562167446    7.79150335980164
C        -1.25050045362946    2.35551871411642    7.23067635458735
C        -1.41497942294226   -2.26077033522456    7.23085253462644
C        -1.48912292372550    3.65707114828808    7.64185299854570
C        -2.42279592667641   -3.11815718867675    7.64225048385789
C        -0.67101579081972    4.21648702770021    8.61251884571759
C        -3.31607873081333   -2.68932359924660    8.61312291098092
C         0.37535121452349    3.49917541227693    9.16574991515105
C        -3.21787027126212   -1.42449498902004    9.16634178041412
C         0.62228778100733    2.20102469233380    8.74976749289847
C        -2.21715515329014   -0.56161355167239    8.75014830285612
C        -2.99698818833828    2.29575857417916    5.60444038503038
C        -0.49037533573467   -3.74336930136377    5.60436927368231
H        -2.29551211451098    4.23713788994906    7.22071739187595
H        -2.52207051446323   -4.10655650388343    7.22117074262454
H        -0.85822289261080    5.22955556755066    8.93598802712300
H        -4.09975664918359   -3.35795867026874    8.93679468651859
H         1.00161146590529    3.95167620146422    9.91951511395770
H        -3.92268342938952   -1.10836473863116    9.92027921101072
H         1.44050994661916    1.63316535220747    9.17002839117010
H        -2.13434877109504    0.43091313285447    9.17039268121110
H        -3.80539058812985    2.58804014028963    6.28145402084930
H        -0.33924085213656   -4.58967718176484    6.28128254950170
H        -2.63187568164734    3.17387787528967    5.06381684057636
H        -1.43352245991851   -3.86611350253305    5.06391813211488
H        -3.36993860322761    1.56449995834048    4.88919170976420
H         0.32925747032983   -3.70074640587953    4.88896738525039

