48
CSD_code = LIGNEV | q = 0 | S = 0 | Stoichiometry = C21H21AuClO3P | MND = 2
Au       -0.30942337813186    3.29588681817820    1.77226500363931
Cl       -1.67608015745554    3.98393218315056    0.09117476942731
P         1.10295996970805    2.65923567531043    3.39026997409033
O         1.68448120252566    5.20308668879048    3.01184975604935
O         1.65114404473410    1.07721776249285    1.34642587086327
O         2.77380999356958    2.39301740424938    5.74191830785259
C         2.79766936162283    3.19068945662009    3.06841762104901
C         2.87592463509039    4.57329716955057    2.85308736986255
C         4.08842183802955    5.15577711550950    2.51917776781235
C         5.21285120186097    4.35116998572054    2.41039972851340
C         5.13760591634319    2.98560435036450    2.62459348115667
C         3.92567448533499    2.39920374554887    2.94934438917373
C         1.58169545471108    6.57396575412528    2.70096316509649
C         1.19056788881740    0.87044484964220    3.59180809865292
C         1.43461784116212    0.21697575537670    2.37267194533953
C         1.43015418791659   -1.16736359889853    2.31029218821362
C         1.16771107515918   -1.89116959656327    3.46407785085208
C         0.89411008377676   -1.25181209325381    4.66081112595410
C         0.89068005271261    0.13205120247005    4.72417118798051
C         1.81297743001146    0.56809042834851    0.04222777147258
C         0.75160559140483    3.30151902523910    5.04402948074994
C         1.67471388030919    3.11021325498863    6.08279448198553
C         1.40428859883790    3.63788782157653    7.33792626368060
C         0.23056220349599    4.34623859275084    7.54858291272253
C        -0.68014681185459    4.53700462391514    6.52498405186385
C        -0.41369323869072    4.01451755788291    5.27072537658405
C         3.77059422499762    2.16627128476754    6.70728621816840
H         4.16817119593220    6.21756262549622    2.34453966206847
H         6.15934832465364    4.80330192609569    2.15365244512177
H         6.02456469882257    2.37636315800411    2.53539090259425
H         3.85315053271796    1.33533229059542    3.12053301672175
H         1.61873143749884   -1.68481738706031    1.38254655392780
H         1.16659570132811   -2.97001072320866    3.41899874531724
H         0.67435540064725   -1.83216569621462    5.54401216294756
H         0.65391489149913    0.63807720669576    5.64852860817165
H         2.09660338943886    3.50526892554564    8.15503106044434
H         0.03338982728023    4.75250438455852    8.52971188801451
H        -1.58874096546110    5.09153464870142    6.70084291091497
H        -1.10156641686134    4.15599292639936    4.44737523038154
H         2.18392688439779    7.18020162038274    3.38490221299808
H         1.88384780537537    6.76982440222284    1.66844502448500
H         0.52984930977496    6.82719186083684    2.82008893414033
H         1.89758237983637    1.43762678537387   -0.60697000007417
H         0.94604276847801   -0.02480337249985   -0.26236153834841
H         2.72196663654039   -0.03676745565602   -0.03541542308109
H         4.55011392506002    1.60179895208187    6.19847702646832
H         3.38802357103328    1.57903061249330    7.54858312505355
H         4.19025112605008    3.10649909144948    7.07881129299157

