39
CSD_code = LIGQAT | q = 0 | S = 0 | Stoichiometry = C17H14Cl3NO2PRe | MND = 6
Re       18.78506992073921    3.43040681167873   13.60446979770276
O        17.33588969448902    3.76256669750081   14.34824489729652
Cl       18.86331557728331    1.17757898663490   13.91501503588966
Cl       20.29516273873622    3.65804352295971   15.22904415926315
Cl       19.46062740839253    5.45770593903443   12.69905677165775
O        20.61318657114698    2.85862112542198   12.17429978258021
P        20.39148539595914    3.45079048331430   10.82734494398301
C        18.58117185033416    3.54087721362870   10.56867449778352
N        17.87908678842597    3.22189109280457   11.66277692474829
C        16.56122351028447    3.05400780085160   11.55594541680664
H        16.04356967544848    2.77873705054077   12.46433158829311
C        15.89167173974016    3.22802642653099   10.36013209864085
H        14.82378185048094    3.08795131773069   10.32169575298132
C        16.61052850038408    3.57814020194693    9.22378186698402
H        16.11415112885393    3.72330010136605    8.27675415937625
C        17.98342965179150    3.71462224510073    9.32974738745353
H        18.59712121381579    3.94310797859209    8.47186327335540
C        20.86223919385678    2.23228348089303    9.56359978071039
C        20.73560639878281    0.89024831321781    9.90054621315574
H        20.40203484349929    0.62435697988051   10.89422277577253
C        21.05523418865024   -0.08337649504118    8.97184966840057
H        20.96310785828716   -1.12693711489097    9.23200598113297
C        21.49539277567351    0.28399187653159    7.71001544128768
H        21.74622738748940   -0.47554485589980    6.98476827628420
C        21.62219899854497    1.62330686907455    7.37569398757254
H        21.97251507602405    1.90508131635740    6.39377703517399
C        21.30536250851412    2.60184999605805    8.30074580851384
H        21.41467101583634    3.64879602134909    8.05259296819346
C        21.32194922944455    4.95152648059072   10.43198249719649
C        22.59624121809602    5.00438604969611   10.98070903529606
H        22.92732869401681    4.19828431423488   11.62146304023517
C        23.40808562253202    6.09302138361041   10.71965493858976
H        24.39618018379424    6.14479229394574   11.15112505384068
C        22.94661282885265    7.11760958395076    9.90927158242761
H        23.57734794326412    7.97049695177718    9.70814930845655
C        21.67353437113038    7.05930137369057    9.36447509935920
H        21.31494861529017    7.86564142284097    8.74217631284376
C        20.85427340599849    5.97480224839775    9.62138858398620
H        19.85273442611348    5.93710651410420    9.21940825677861

