49
CSD_code = LIGRIE | q = 1 | S = 0 | Stoichiometry = C25H16CoN4O3(1+) | MND = 6
Co       -0.04806026322966    2.80367485114435    9.18167936830008
O        -1.62717246026961    2.08574650834241    9.74535246007853
O        -0.30714798054054    3.23264335254092   10.93517501798781
O        -2.19781078376824    2.46011373293741   11.89716473289940
N         0.74423183295606    1.15535023917175    9.67631803420939
N        -0.10504757097916    2.05764961749302    7.38062121493145
N        -0.90695377849791    4.43791553942739    8.76763922652455
N         1.61444388398075    3.79863093943004    8.95434823823483
C        -2.19861250450480    4.70567617344237    8.70242160338970
H        -2.87423238458470    3.86105048225701    8.72882105654442
C        -2.68294268109947    6.01503226574929    8.62575493757122
H        -3.74829961856898    6.17551220693519    8.58468475943840
C        -1.80672303104774    7.07597241513840    8.61948150685767
H        -2.16259518229156    8.09406982336077    8.57520450182276
C        -0.42682348209283    6.81645332161552    8.68572246298005
C        -0.03427449524080    5.46684468009109    8.76324351073880
C         0.58936185428655    7.81753097439807    8.69708680184038
H         0.28456296984075    8.85103961731641    8.63675736529162
C         1.90272339752099    7.48816772637588    8.78798616136456
H         2.66168810198467    8.25522273175919    8.80090148241203
C         2.32319044663068    6.12807654480536    8.87909142937032
C         1.34052188230785    5.11863078077048    8.86351429438232
C         3.66019146275298    5.71458348014381    8.99757878901539
H         4.45304140208775    6.44640298382831    9.02141202916660
C         3.92941926139175    4.36801255661906    9.08824541832426
H         4.94274267291540    4.01217579661555    9.18273857647161
C         2.88274487111739    3.44318420198270    9.06489170534867
H         3.09552942923121    2.38559056131956    9.13579157038019
C         1.14265530470390    0.74743039094497   10.86756099919444
H         1.18902643242341    1.49414127076207   11.64904762803715
C         1.46953788393699   -0.58754788533889   11.12491920295890
H         1.77959208191393   -0.86625626124996   12.11920987494311
C         1.37776789900493   -1.52606549711687   10.12288906571542
H         1.61112910576928   -2.56385009209336   10.30639341970913
C         0.95704229401174   -1.11612782963448    8.84580282552447
C         0.64791245259522    0.24750198092593    8.68284554771374
C         0.80518569928070   -1.98261713946170    7.72283490329847
H         1.04403791302060   -3.02724912511215    7.85151672478846
C         0.36696541204341   -1.51591222532954    6.52625565989961
H         0.25098911435556   -2.18276404250559    5.68569667375668
C         0.03795545252156   -0.14035398191032    6.34059091746306
C         0.18541046203595    0.73900741854791    7.43138268929875
C        -0.44129870093643    0.40802029665594    5.13966040565371
H        -0.58172116987331   -0.22236165914980    4.27494657505379
C        -0.73094662964806    1.75277081744571    5.09666585119603
H        -1.10219842074784    2.20989469060260    4.19343780344541
C        -0.55162055843892    2.54241528726927    6.23482791346422
H        -0.77805358286285    3.59910286023098    6.19957628958771
C        -1.46096569739785    2.58046662050366   10.96411077341865

