49
CSD_code = LIGRUQ | q = 1 | S = 0 | Stoichiometry = C25H16CoN4O3(1+) | MND = 6
Co       10.26634813944518   10.97544213966917    9.68727453396257
O        11.16865642844761   11.11142048504268    8.10765553520011
O        11.93277805221125   10.26169126276605    9.88763056330358
O        13.27341682160609   10.29607334078599    8.07188273034881
N         9.60753310562652    9.32218949672651    9.03800123720160
N         8.58955238872510   11.72352734059424    9.03121174215966
N        11.01248310524488   12.61014461824559   10.28418569870166
N         9.71534143150858   10.72917435373311   11.54159000738858
C        12.24116972314777   10.52998946387103    8.62650102262882
C        10.17751974329182    8.13110351601600    9.06154603887957
H        11.06150231020258    8.02497099933990    9.67607951921295
C         9.68541871343330    7.05696956074210    8.31394318374759
H        10.19635648980830    6.10895315375681    8.36427992503401
C         8.57662264307272    7.22204753133496    7.51608878617607
H         8.19188795294767    6.40938529094835    6.91895126000007
C         7.95082209050471    8.48010662587390    7.47585091881893
C         8.51780974660744    9.50024683143880    8.26267245947965
C         7.96311574874220   10.80930475740450    8.25800729486935
C         6.83510443225111   11.09305195505891    7.46303616380288
C         6.27212777723548   10.04153958113150    6.68057512831000
H         5.40893872174381   10.26787561860501    6.07373771462438
C         6.80502837715814    8.79344952503909    6.68590203896684
H         6.37381563564738    8.00900970327190    6.08323261997913
C         6.35117782319686   12.41122964862797    7.48982134847928
H         5.49461401286587   12.68553843514368    6.89330181130592
C         6.99418023739559   13.33473115902666    8.28216589943608
H         6.65405908475196   14.35682371675697    8.32769994420331
C         8.10723756265617   12.95428420694157    9.03555843348783
H         8.61094162424709   13.68040871822821    9.65841955611598
C        11.67014122350361   13.52600448189247    9.59657962844699
H        11.65648249447244   13.43078489578430    8.51904222233911
C        12.37380951494696   14.56046503994811   10.22073136676431
H        12.89924850215781   15.27654238105036    9.60964377953170
C        12.40334294094724   14.64469171217979   11.59383334249328
H        12.95361739139203   15.42699734410628   12.09392945754488
C        11.71143627411684   13.68101183265227   12.34776235903733
C        11.02992247336402   12.67916273002732   11.63145596207338
C        10.32612621004700   11.65178422851338   12.31730256229680
C        10.31000275103827   11.62930358552148   13.72582439963750
C        11.00133722769319   12.65887725461961   14.43071732581481
H        10.98503181867644   12.63321998849077   15.50946538450852
C        11.67012795536859   13.63961039974103   13.77302048650188
H        12.19508748178100   14.40842349655018   14.31881089982368
C         9.61612309420205   10.57328357085068   14.33887697399921
H         9.57959248590769   10.50234154444329   15.41507647568979
C         8.99603878751135    9.63924337647884   13.54074026368230
H         8.45554582419168    8.81302243914833   13.97394362045834
C         9.06774082901213    9.75063591043141   12.15015967263334
H         8.57878479594514    9.01731075145043   11.52418070089981

