73
CSD_code = LIGRUP | q = 0 | S = 0 | Stoichiometry = C27H41NO3W | MND = 5
W         0.71009427004973   14.35903172189575   -9.19303644712174
O         0.33516083464676   15.68607789962255  -10.16612595405619
O        -0.52035109204070   12.98321476605556   -9.75580724482339
O         2.10663792263604   13.44834776888352   -9.99178231836041
N         1.32383868031086   11.95397640584473   -7.87783890926916
C        -1.42299899255820   12.15415508527295   -9.23650823792231
C        -2.81295096079249   12.29850781466035   -9.44981365738629
C        -3.65725626513896   11.43858656323121   -8.76326629490493
H        -4.72469293784495   11.53622589355162   -8.87608103638852
C        -3.19697662123716   10.43125091161316   -7.92322829700407
C        -1.83006432141487   10.24425449915293   -7.80034130950010
H        -1.44789070707066    9.43192801786430   -7.19691097943638
C        -0.94681220244865   11.08388471264203   -8.45531910817675
C         0.53691563589390   10.83696991252525   -8.43965108873579
H         0.75147143306845    9.91237715415448   -7.87764792640441
H         0.87285138967927   10.69113514339804   -9.47509731338268
C         2.76102616838817   11.64298603065892   -8.05464612359087
H         3.01977193782938   10.74151670798008   -7.47336586413741
H         3.32890732678658   12.48902807465554   -7.64647760799827
C         3.16216515536384   11.42768220338842   -9.49196401310802
C         3.88165124283271   10.31783804937842   -9.90133219156781
H         4.15625348787884    9.56243406721785   -9.17755408327319
C         4.25675987043303   10.17327017479498  -11.22722141242286
C         3.88747491762913   11.15338144135281  -12.14456179278552
H         4.18777239663285   11.01102009356208  -13.17030816777571
C         3.16289649837766   12.27720590729966  -11.78481115106985
C         2.80019319726479   12.41103870925551  -10.42806907629968
C         1.04507937920750   12.03433332193187   -6.44301023477012
H         1.33384387349662   11.10381828145963   -5.93055929698537
H        -0.02077253241322   12.19440946109142   -6.28955981616041
H         1.59878114145131   12.86074492021858   -5.99940182755272
C        -3.33621213080540   13.32887485568991  -10.44538506427267
C        -2.70325987547842   13.03754533681359  -11.81373302740451
H        -3.07694746339585   13.73952808304694  -12.55593826309806
H        -2.94498886635776   12.02629634619948  -12.13691650478955
H        -1.62231330054489   13.14126348916172  -11.75877949624245
C        -2.96762173115961   14.75407086735892  -10.00818458087887
H        -1.88047461678675   14.91685941404547  -10.02003492684981
H        -3.34542560240599   14.95053960098180   -9.00667042558313
H        -3.42056683527846   15.47146662302027  -10.68999021649760
C        -4.85981702777836   13.26505611764418  -10.60438872354833
H        -5.36405794745894   13.50855324868885   -9.67216005192270
H        -5.18039261699502   12.28133158003179  -10.93964743250000
H        -5.17149425099182   13.99150559273615  -11.35193547051034
C        -4.16454950967373    9.56260758603372   -7.17493686581368
H        -3.72473703360299    8.59281257412827   -6.95441478034107
H        -5.07620460375491    9.41282126745139   -7.74880165941725
H        -4.43747347566331   10.03262403813160   -6.22907634250048
C         5.05680801853660    8.98842570501835  -11.68223617128474
H         6.06837448988605    9.29559356693404  -11.94770296936871
H         4.60568228978173    8.53463588399329  -12.56303401944420
H         5.12193275711133    8.23872812948460  -10.89789480986797
C         2.71743001963542   13.35044912197394  -12.77129839228730
C         3.23112502245219   13.07427592845600  -14.18854562208398
H         2.84542961596086   12.13146569461705  -14.56945452779944
H         4.31818354164195   13.05099913020037  -14.21077533191460
H         2.89729117133907   13.86616626703896  -14.85547519215521
C         3.24191501156742   14.72686577913312  -12.32744648126611
H         3.06055323274820   15.45831631613391  -13.11219894990113
H         4.31298760204064   14.68214634599689  -12.13716116868332
H         2.73145668483580   15.07454284579119  -11.42143287150098
C         1.17956588836609   13.38593255254163  -12.81101592988385
H         0.76727968353177   13.74773600376620  -11.85643476015059
H         0.78140336860617   12.39373454249891  -13.02157492189980
H         0.84710722143534   14.06520020268009  -13.59361044968643
C         2.30900234018222   15.40494325688626   -7.98934125666217
H         3.27272966632853   15.46358415596684   -8.52498433028766
H         2.56156060949025   14.95223665874139   -7.01650540592791
H         2.06741651536561   16.45238573883787   -7.74587180106205
C        -0.66266663382951   14.75939348291609   -7.45869010291234
H        -1.16183115774406   15.74087310648387   -7.54175051870834
H        -0.17967530118641   14.79868986587137   -6.46930259302212
H        -1.49240489683697   14.04299138227572   -7.33056880768515

