65
CSD_code = LIGSEA | q = 0 | S = 0 | Stoichiometry = C30H28N2PdS4 | MND = 4
Pd        3.56156433666245   11.07196901318490    1.97945845766339
S         2.14792163296918   12.34233354041234    0.64935657629494
S         2.88061847755498    9.57167131034486    0.34638605807776
S         4.22307038134410   12.56279963903212    3.63061372276056
S         4.94526420135467    9.79158954046269    3.33185046305425
N         0.79463290294368   10.65705846564748   -0.92021512324005
N         6.12279696211961   11.40268831692297    5.10717602953848
C         1.80645041915126   10.83356372445047   -0.07857889767025
C         5.21808665505672   11.27015496860496    4.14426883806696
C         0.50659338053166    9.36973994345082   -1.52436801181031
C        -0.13273243038397   11.72230627324202   -1.25409898690115
C         6.97738817475545   10.30657704212664    5.52498233771517
C         6.34273676374437   12.66051772886932    5.79593839762187
C        -0.71847781191547    8.75187694269094   -0.89992900472699
C        -1.84875873105094    8.48316378214747   -1.65879296528450
C        -2.97536072239582    7.93776921115343   -1.06694319369161
C        -2.98256361506205    7.66538841039910    0.28996467694084
C        -1.85856165726103    7.93483549680217    1.05359247882125
C        -0.73135726633836    8.47494145512237    0.46225650968257
C         0.06611539672966   12.16793324386822   -2.67966268716176
C         1.27141308438664   12.74878794790208   -3.05570541944736
C         1.48094749637743   13.13373908353984   -4.36707504767585
C         0.48806634926182   12.94283066331431   -5.31416906202630
C        -0.71470720302054   12.36589653013448   -4.94542198957973
C        -0.92337244682744   11.97590906897524   -3.63341003294612
C         6.58545458618806    9.82482609598338    6.89795850418941
C         5.32775312513252    9.26796948077431    7.09749099195499
C         4.94088535044197    8.85262356964396    8.35839785911946
C         5.80732700338467    8.98882696085613    9.43083897559037
C         7.06182216721534    9.54097193411104    9.23793387888374
C         7.44800829908187    9.96127669239561    7.97655743146711
C         7.65963641855312   13.26871529664546    5.38641031694022
C         8.66787095382504   13.48206374846389    6.31578469371940
C         9.88057444975717   14.02075229591936    5.92074940187153
C        10.09669618591546   14.34137207434891    4.59178739240139
C         9.09526900815637   14.12726045312270    3.65868929264233
C         7.88196718741453   13.59425813073030    4.05347064931516
H         1.37475887992520    8.72214406791433   -1.37575070181593
H         0.35640267392511    9.52292665451796   -2.59734319897119
H         0.04542059368457   12.55532215594303   -0.56897770961570
H        -1.15088673200193   11.34860002556432   -1.10618073352427
H         8.01309099259399   10.66051836627997    5.52260601269772
H         6.87422943468737    9.49837991237532    4.79622083309293
H         6.32692459027388   12.46753498225320    6.87312670286201
H         5.51998198202699   13.33468809851953    5.54328941284150
H        -1.84421050814614    8.69601114015527   -2.71874164962537
H        -3.84936005304526    7.72899553637015   -1.66622647263963
H        -3.86238228090017    7.24293249369866    0.75201762559468
H        -1.85981173328144    7.72211604302642    2.11210929322593
H         0.14684033490831    8.68121778674399    1.05693608987445
H         2.04166492034947   12.89983892911666   -2.31397432638345
H         2.41965544128100   13.58546637068633   -4.65084497194406
H         0.65149734735458   13.24470296253404   -6.33794727718513
H        -1.49165858255863   12.21600782377901   -5.68056577345665
H        -1.86332463485576   11.52556615125625   -3.34609645832923
H         4.65612226668758    9.15942969385008    6.25867377019111
H         3.96238149112538    8.41997592585475    8.50473859501187
H         5.50525280703930    8.66410936946284   10.41536219528946
H         7.74066067394584    9.64798451116732   10.07124801185155
H         8.42800218466412   10.39260226522956    7.82660679425376
H         8.50012516211351   13.23107228745089    7.35386222224358
H        10.65848897461922   14.18594789860858    6.65155027601998
H        11.04377748773055   14.75841807930522    4.28336395303260
H         9.25956079112348   14.37798824050826    2.62145129035903
H         7.09855602872731   13.43144415196226    3.32774268272379

