64
CSD_code = LIGWEF | q = 0 | S = 0 | Stoichiometry = C21H36Cl2N3PRu | MND = 9
Ru        2.32797668559435    2.99133181664336    4.59845454307284
P         3.71703122371706    4.69208184210661    5.24141205516111
Cl        2.38160913882226    4.45664628077368    2.72974919196209
Cl        4.41741433239412    2.08147491152878    3.96780890604141
N         4.01729743220169    7.33803014568854    5.93747545228771
N         5.91897491165554    6.28522680268670    4.85792808733919
N         5.38791734660506    5.74433971291727    7.16492535714228
C         0.07819988856723    2.89892165256079    4.45378070342573
H        -0.60724985060921    3.50244412039330    3.86923123855075
C         0.57057560765526    1.69403451023810    3.88125556092580
C         1.41213746529838    0.89028110077745    4.66020143617293
H         1.77689935838081   -0.05110573985313    4.26318394739166
C         1.77313346713136    1.24491401361450    5.98827480760297
C         1.26484163852299    2.44415092168263    6.52302268729000
H         1.46961992164694    2.70094520763778    7.55744068219235
C         0.39100871792137    3.27968807852987    5.77127771949627
C         0.16536490210238    1.28914367555524    2.48378599090205
H        -0.37855565573232    2.12713105113531    2.03255104088897
C         1.39322114236995    1.00370685526249    1.61623547231661
H         2.08897055037365    1.84173528415440    1.66432053023331
H         1.09451229574759    0.86605485358203    0.57998711863109
H         1.91211067068269    0.10628409386661    1.94527128838740
C        -0.76892964380819    0.07667594198872    2.54023753977825
H        -0.25998952305670   -0.78313110646648    2.97118791545808
H        -1.09491354537638   -0.18579387627671    1.53687414861719
H        -1.64872122685087    0.29498820033731    3.14356173670702
C         2.58762341091858    0.28717486417863    6.82699926862287
H         2.90968484192763   -0.53688650219094    6.18085960427700
C         1.71504642112689   -0.28994046218932    7.94644063953154
H         1.39909212312925    0.49180938732598    8.63420233020047
H         2.27694166793045   -1.03227555390265    8.50784215784227
H         0.82703945102719   -0.76712484276495    7.53553244870496
C         3.84363692538321    0.95327712821919    7.38789408794281
H         4.42165593430311    1.37837283039615    6.56859141532977
H         4.45756208544335    0.21745371849506    7.90127941984875
H         3.59112230626968    1.74159429418611    8.09354010550760
C        -0.26472637782749    4.46763069230189    6.43687224814278
H         0.42965935957176    4.85600047766966    7.19291013205906
C        -0.59557071708920    5.59213005311252    5.45474476076902
H         0.23186465495250    5.75593630251240    4.76623498769952
H        -0.78709616536320    6.51555862618217    5.99599905879090
H        -1.48558218249989    5.35403983699773    4.87670574266840
C        -1.53183486803138    3.98664442372474    7.15476075249119
H        -2.23354436181453    3.56369000760206    6.43846869209195
H        -2.01362941119048    4.82040786891657    7.65958258600076
H        -1.29392440260686    3.22402550408182    7.89381965702904
C         3.01506690005097    6.39834156328239    5.48006293385038
H         2.60663603743963    6.74126967200712    4.52274349600804
H         2.20587192021093    6.36098716743201    6.21759147005808
C         5.20370418130525    5.19010900595630    4.23889329165500
H         5.86752658967409    4.32343143665342    4.14397509211130
H         4.86916560974040    5.48484791320348    3.23758902229385
C         4.58870847974749    4.56935292829222    6.88204206110893
H         3.84818424034719    4.44388701762180    7.68072643395889
H         5.23984774028272    3.68852671099680    6.86809467761637
C         5.09846587267879    7.47662468290551    4.97274795797188
H         5.73756396962703    8.30361713851178    5.29870265758595
H         4.67290689411385    7.71352447921479    3.99485872227433
C         6.43249989363302    5.92856460286082    6.16710830583496
H         7.01219565609288    5.00605419971945    6.08524593055098
H         7.08688975395224    6.73615948619003    6.51077412160648
C         4.57600262839905    6.94867259997769    7.22089224718191
H         3.76043233265875    6.79663688296440    7.93395599330800
H         5.21035335251414    7.76697350642696    7.57628033159386

