59
CSD_code = LIGXAB | q = 0 | S = 0 | Stoichiometry = C24H26CdN4O4 | MND = 6
Cd        9.51711700745622   13.22295118949467    3.14713138011632
C         7.21666393483099   14.22070060287433    3.27850578996762
C        10.68252836953875   12.27781543407707    5.16155941922582
C        11.33652014140925   11.75166428860440    6.39977516530671
C        12.54567752255246   10.78455010388858    8.69940041807489
H        13.01624066236446   10.40713830110738    9.59607252170066
C        12.45389941330274   14.42245898671087    2.19701514898469
C        11.39358273559885   12.54129327366515    7.54289516778471
H        10.95771319988953   13.52854332561790    7.51128922024341
C         5.83944527953095   14.78478755532713    3.42900913049005
C         8.66070110149209   11.92909366895831    0.21830493719707
C        11.99575599863540   12.05676584024528    8.68907629408280
H        12.03808202308501   12.66944854649001    9.57820663633192
C         8.73161740981861    9.78838998668310    0.80136768110267
C         3.57354586346876   14.55263237104660    4.19117871030135
H         2.80199707757981   13.96831581413398    4.67156102255037
C         5.54698119525122   16.06040603801429    2.95967849724259
H         6.32951941928779   16.63248109764674    2.48384850982752
C        12.49164345754786    9.99490229182125    7.56197413117663
H        12.92148729859570    9.00326771685377    7.57265215192142
C        11.88804977149204   10.47546369204634    6.41479662966155
H        11.83624233295431    9.87514763795591    5.51849345738955
C        11.96689966489866   16.58315049412208    2.34498664081049
C         8.64549298376205    8.31226459194539    0.93659694904901
H         9.63741652366339    7.88175770645894    1.06847791510642
H         8.19119318847456    7.88242814807922    0.04875160248329
H         8.04316429495588    8.04562962157736    1.80402384667546
C         8.33164938901332   10.63510852929012   -0.21453127448309
H         7.86122489840263   10.36184561801251   -1.13687162905681
C         4.27299962232720   16.57725135576615    3.10552896651272
H         4.04652505899312   17.56904399510623    2.74099059261796
C         8.46021947984091   13.22848291998682   -0.47561109076399
H         8.46312778536143   14.03249423963966    0.25885752896009
H         7.51499932808578   13.22949161974007   -1.01346887651310
H         9.26315776945244   13.40453173961829   -1.19162580708000
C         3.28610776708795   15.82460824753416    3.72179202445405
H         2.29110654309795   16.23041262599759    3.83675398723077
C        13.12054120109629   13.10138531933344    2.05424818101172
H        12.47507757060461   12.32688821383116    2.46581242671311
H        14.07282115270554   13.09863254483124    2.57971652041865
H        13.30802247477854   12.88154531913188    1.00317226211264
C         4.84585315883257   14.03210973143131    4.04531980806402
H         5.09346451280304   13.04441294273568    4.40371907893836
C        13.01989121868250   15.70660368801298    2.16724035296170
H        14.05391362809932   15.95453372557275    2.04103702923455
O        10.55995531191193   11.51467248546452    4.16894253102126
O         7.42741371026174   13.03690390278176    3.62886724822923
O        10.29021138722880   13.46691970936794    5.14257140511256
O         8.12061896083547   14.94724692279763    2.79110952523445
N        11.14334427105577   14.52109581819128    2.36847460578753
N         9.26781463507829   10.57175937195180    1.75319606461892
N         9.23276917551203   11.86356864134058    1.41219174068246
N        10.86266860153263   15.82473829345501    2.45862719025277
H         9.64873219686452   10.32069316795630    2.65823081394952
C        11.92822685999105   18.06579699942708    2.41531685324502
H        11.25810192405670   18.46740190051342    1.65636154951099
H        12.92267194552076   18.47265816551210    2.25753126555653
H        11.56717876982336   18.38959941097885    3.39065670234767
H         9.90251181961962   16.10281450926342    2.62561344823771

