61
CSD_code = LIGXOP | q = 0 | S = 0 | Stoichiometry = C24H26CdN4O6 | MND = 6
Cd        9.89107259722936    7.25326746289261    3.14752740842656
O         7.79580717147660    7.61397595487345    3.62225941796435
O         8.36458064263112    5.71003509157238    2.68990810311558
O        10.97543121080138    8.76154657936325    4.35912631388263
O        10.50191150769854    6.78444593488188    5.18641625885293
O        11.14520986349389    6.20992170972642    7.61835724532994
O         5.33575804163717    8.06115661792816    4.25836371580649
C         6.08110011422508    6.00976657050177    3.24798437802948
C         7.49169732300674    6.46272078832654    3.18619064053900
C        10.98914738228957    7.94800324549334    5.31462699866399
C         5.07770846918383    6.83582859471842    3.78364715602307
C         3.76253001409168    6.36605896435474    3.81986019880585
H         3.00419612406566    7.01172414117004    4.23455635816901
C        11.59873855701605    8.34432663081635    6.60688637509873
C        12.75401109262275    5.86086220670544    2.32761552760045
C        11.64123959759799    7.45164295061245    7.69195348315814
C         9.48412507044205   12.36139838509092    1.27400241152819
H         8.84106771396282   12.63528116038373    2.10958983041022
H         9.14395350400322   12.88532728015170    0.38573554404708
H        10.49796258312586   12.68304408491243    1.50786870507146
C         9.18191041451425    8.80835830745559    0.33515658023647
C         9.44081049525248   10.89499607603782    1.04841431620981
C         5.74390900923626    4.74543939080806    2.76775518611545
H         6.53363798292585    4.13114273480255    2.36158151049025
C        12.22412128992550    7.87085961665601    8.89037995872271
H        12.24774983904985    7.17456982062126    9.71411009752430
C         8.97969933959378   10.15081381573568   -0.02022710177659
H         8.55007286114690   10.52042747384181   -0.92853208500039
C         8.86880733774706    7.57859434579187   -0.43893614741678
H         9.64727606655692    7.38567344170951   -1.17712241060765
H         7.92211388434423    7.69172226387753   -0.96219915951838
H         8.81007156506401    6.72829584767000    0.23918259675405
C        12.13650878300968    9.62235677473766    6.74941974465210
H        12.09157590533980   10.28791262233052    5.90029668106691
C        12.08973546066632    3.74227921836620    2.31604220321888
C        13.53239299126422    7.12706226695581    2.30645288055089
H        13.79529567765414    7.39420008979718    1.28286708875383
H        14.45123548820719    7.01605305848959    2.87758095216333
H        12.93253371537430    7.92884078454485    2.73495647165870
C        12.70800279855674   10.02316162891795    7.93737627403816
H        13.12024229818501   11.01587567862108    8.03635108997530
C        11.93092275437750    2.26663213542705    2.29769226715893
H        11.51409811956521    1.91854911295335    3.24204767342287
H        12.89458917068068    1.78994337748531    2.14489571740254
H        11.25606586585615    1.96429076355056    1.49819619030668
C         3.45235415614565    5.11223132652701    3.34006007354280
H         2.43013228946926    4.76490044321741    3.37791515341917
C        12.74848296052603    9.13951750608368    9.00895220334385
H        13.19346283697908    9.44710627955593    9.94403750664600
C         4.44274658219730    4.29409567684000    2.81043382752298
H         4.19378427617626    3.31242670262079    2.43683948600810
C        13.21743508175562    4.53811477952199    2.25760611919135
H        14.23498703591517    4.21374140513816    2.18263279636341
N        11.43045639876621    5.86173524365389    2.41000406842351
N         9.88931691245048   10.01010948268887    1.95602525945327
N        11.04269183253516    4.58122124351726    2.40459888257629
N         9.74090735842695    8.74847716166033    1.53613830278240
H        10.27396761340641   10.17567167584818    2.87845405312261
H        10.05642886650930    4.36914075263833    2.49698752539152
H         6.31094473008763    8.20362130732680    4.16168342117760
H        10.76547337397996    6.10900401160328    6.70941667439538

