53
CSD_code = LIHBOT | q = 0 | S = 0 | Stoichiometry = C24H18FeN8O2 | MND = 6
Fe       10.69055595631158   -0.32926519590391    0.00008046059207
O        11.30903595214545    0.95801485472933    1.29986536655598
N         9.54512795008893   -1.72670399915183   -0.83372486321820
N         8.21346363697308   -1.02678382021740    0.91165477354077
N         9.25711294136126   -0.26843615438644    1.10748343023029
N        10.46570698942663    1.24265477239899    2.22333458441201
C         6.99981145472586    0.35859013712464    3.09434643645303
C         6.07550991332715    0.65669717904522    4.07989439630976
C         6.42051409801787    1.46610041203015    5.14779705189299
C         7.70440503399597    1.98396874476121    5.22675179976969
C         8.63353924169809    1.69173713710230    4.24943625964710
C         8.29383240530400    0.87192712382109    3.16836823826600
C         9.31643421397140    0.60730808320850    2.15795130484251
C         8.36680412000643   -1.81815614775671   -0.16104088331092
C         9.73675731485122   -2.49396643728143   -1.89942714421575
H        10.68740861844630   -2.37857833967624   -2.40170310571912
C         8.79232151917601   -3.39052951108462   -2.35681377358384
H         8.99400687866265   -3.98740904516948   -3.23058740987471
C         7.58045328017335   -3.49646024921685   -1.67328837800189
H         6.82397386148878   -4.18725792565824   -2.01342210640903
C         7.36181281865419   -2.71068577872776   -0.56824957025725
H         6.44611560255547   -2.74639906766448   -0.00269071329214
H         5.07575112792828    0.25334770582303    4.01018592722832
H         5.69451120749508    1.69500710477638    5.91398090357870
H         6.72362783887557   -0.26864479412486    2.26350233588605
H         7.97975461185178    2.61901823104410    6.05624242132992
H         9.63324804245521    2.09161355279354    4.29960445490324
O        10.07192686282986    0.95780744682630   -1.29986415281111
N        10.91524977697168    1.24260514204334   -2.22331230001347
C        12.06451154745600    0.60722325961622   -2.15800980790780
N        12.12376691323567   -0.26864473030743   -1.10764336471145
N        11.83586926411544   -1.72683255171833    0.83370764428010
C        13.01420203565160   -1.81821451817741    0.16103301731956
N        13.16749865440217   -1.02688059540752   -0.91170917819369
C        14.01922484327919   -2.71069291745497    0.56827796131985
C        13.80058800628960   -3.49646323541850    1.67332287358032
C        12.58871000439570   -3.39056158764981    2.35684239831905
C        11.64424701040858   -2.49405727990717    1.89942412741798
H        10.69360311463724   -2.37864803006089    2.40170918634535
H        12.38703163106984   -3.98742256250145    3.23062934850701
H        14.55707620713038   -4.18724455395688    2.01346338653656
H        14.93491943648919   -2.74639467102823    0.00271537250378
C        13.08716476514732    0.87196468339966   -3.16835574916866
C        14.38117424614039    0.35858742736702   -3.09436004336021
C        15.30547708246018    0.65668467948922   -4.07990850725043
C        14.96048784887153    1.46611354175066   -5.14779364756930
C        13.67660585167541    1.98400264153760   -5.22673942473414
C        12.74747534670909    1.69179591939776   -4.24941399491643
H        11.74776518238935    2.09165843782081   -4.29959535341159
H        13.40126188538822    2.61905674418009   -6.05622743092358
H        15.68649318471880    1.69501698609506   -5.91397527156916
H        16.30522813684300    0.25331358917969   -4.01020914968761
H        14.65734453132651   -0.26868183775315   -2.26354013745616

