116
CSD_code = LIHGOY | q = 0 | S = 0 | Stoichiometry = C50H60N4OZr | MND = 10
Zr       -0.99050556608304   -1.44003016289050    4.16914971991926
N        -2.46149507356697   -1.97879649847940    5.56172444851968
C        -2.49097052767435   -3.35222646773419    5.41251580069003
C        -3.71271219339233   -3.74530651312448    4.90204620630433
H        -4.05916533987259   -4.74538331258773    4.72306790348689
C        -4.46623132216122   -2.57501386187143    4.69742374303110
H        -5.46229384453593   -2.54063291192357    4.29972290196352
C        -3.68204964575806   -1.52096979585433    5.11229454780601
C        -4.02739490030147   -0.04693851857744    5.17817017137609
N        -2.08164685481873    0.42114021723175    3.70325976009001
C        -3.36995365931693    0.63021629440017    4.00413542959146
C        -3.93935031311136    1.59542803439419    3.14175404843187
H        -4.95067426041065    1.94955182087281    3.15304079890596
C        -2.94681178151767    1.99351870387867    2.28608057878962
H        -3.04405420716015    2.72211290031119    1.50529310046138
C        -1.77569810785639    1.26016461951125    2.63704670830473
C        -0.50509473843571    1.42445137693669    2.07964787165616
N         0.71884595986148   -0.37074552212205    3.30144091215669
C         0.65426160449249    0.74032406174360    2.46491072116700
C         1.97508633073018    1.08274099707112    2.06228697192396
H         2.26873054991128    1.90157941514113    1.43549619568071
C         2.81846977297915    0.18727162593053    2.66172733969825
H         3.88614453658294    0.16674403333924    2.56997903511696
C         2.00889415849007   -0.70824664176847    3.40511289275023
C         2.54519395465828   -1.92959299847775    4.10311203304992
N         0.35965156009543   -2.82614491421656    4.95899351188498
C         1.66643385996065   -2.47825407242260    5.20822814121805
C         2.05300560426525   -2.98820896179742    6.43305625151148
H         3.01278326855221   -2.92258780131773    6.91055607720051
C         0.93522723145355   -3.65956339698631    6.96970742327473
H         0.91129464673620   -4.16933922081254    7.91434972896819
C        -0.08230806161834   -3.54040573889919    6.04694171284412
C        -1.42092567329465   -4.23505138187415    6.01464626988937
C        -5.55405308032974    0.15039527243212    5.13164907444475
H        -5.78017635613115    1.21675192342238    5.09221404022563
H        -5.92170979436298   -0.29910677395845    4.20768655371939
C        -6.29146543625480   -0.46009519446185    6.31995393708531
H        -5.98610112211696   -1.49185396083278    6.46997191431543
H        -7.36381941684392   -0.44025171604958    6.13678568413333
H        -6.09811494258601    0.09790206040160    7.23307142729997
C        -3.41259787010667    0.54930790252282    6.46880098821801
H        -3.80536742936529    0.00285830470142    7.32784851103510
H        -2.33860408913117    0.36633639104006    6.41147965078313
C        -3.66118579763029    2.04403781315146    6.64630926463221
H        -3.32687518573119    2.59577135472826    5.76939264272209
H        -3.11698226723162    2.41648979376222    7.51328494481714
H        -4.71549750175779    2.25695106374874    6.80266300594837
C        -0.35582361602925    2.49375638472796    1.02319815037277
H         0.47752421377644    2.25530341823816    0.36432943761454
H        -1.25305793752319    2.53046663578935    0.40671448375237
C        -0.12622069250320    3.86492764502558    1.66402526687847
H        -0.96352120172079    4.12835029374846    2.30580781685212
H        -0.02314027507987    4.62705216638882    0.89508585664740
H         0.77787425096293    3.85521573041907    2.26842583041106
C         3.95496948461580   -1.63762812756253    4.65618733248699
H         4.31525279886704   -2.53553814779141    5.15905216992529
H         4.64058625142819   -1.43427124169912    3.83435099059781
C         3.98386753500488   -0.46038763659113    5.62641890257213
H         3.72748406690525    0.46593173440096    5.11634967134017
H         4.97847677693083   -0.35085635263747    6.05464267079611
H         3.27367790042097   -0.61477755572000    6.43406793510436
C         2.60692630682301   -3.08560835048624    3.05491012454397
H         3.03698834211634   -3.95501944377636    3.55794365381710
H         1.57127714307612   -3.32699812424915    2.79277198185602
C         3.38940671290518   -2.80845732749341    1.77685724772034
H         2.97808957714449   -1.95444792815403    1.24420059876058
H         3.32986267087477   -3.67704554983315    1.12412234510963
H         4.44010283827314   -2.61883782109976    1.98213211988997
C        -1.28827981365157   -5.50381224182769    5.13559896048481
H        -2.23131996489011   -6.05125734031298    5.16525024462968
H        -1.12283229203792   -5.16066673414139    4.10857333470567
C        -0.14968319671618   -6.43997843939808    5.52441557128935
H         0.79902188247678   -5.90944042490103    5.51935304749706
H        -0.09110000929062   -7.26262252151043    4.81433534082298
H        -0.30122256263910   -6.86211274288948    6.51473996602268
C        -1.83601003699719   -4.58838516529076    7.47492624692831
H        -1.13924918795042   -5.32913253741121    7.86622273577335
H        -1.73754374054694   -3.67590286292224    8.06817268124747
C        -3.23893908771897   -5.09896099166082    7.58725275389176
C        -3.52143307688602   -6.45658159670784    7.51035265257288
H        -2.71359844335063   -7.16613047563501    7.39975132532258
C        -4.82620230327626   -6.91346282414415    7.57932131733361
H        -5.02923433236945   -7.97317869293984    7.51474037351997
C        -5.86930106722083   -6.01676109196735    7.72997514386302
H        -6.88813718363729   -6.37272596859308    7.78092353497427
C        -5.59903135223209   -4.66182113593580    7.82023310599350
H        -6.40903760842616   -3.95690544577384    7.94264442416724
C        -4.29491709024079   -4.20867644391201    7.74972846826205
H        -4.08725923385572   -3.15054716364967    7.81829978982596
C        -1.20360658661060   -2.48043579676602    2.16894562025806
H        -0.69868354377875   -1.81541387246481    1.44833472121337
H        -0.72761274461172   -3.47179897066223    2.15068054058421
C        -2.63282734856205   -2.58357776335681    1.86953162606130
C        -3.32663415102162   -3.79791722956785    1.98360553855910
H        -2.78533138190077   -4.68611573283972    2.28364692743091
C        -4.67459196706096   -3.88535128700646    1.70007323492621
H        -5.18028285662244   -4.83619180818720    1.79344136842263
C        -5.38276162126762   -2.76581048036846    1.29462143782956
H        -6.43923973995439   -2.83423448317469    1.08020796425825
C        -4.71300609075882   -1.56154165825768    1.14369184612708
H        -5.24727479127750   -0.68562814745357    0.80069005065344
C        -3.36193340729594   -1.47420699486771    1.41004139035753
H        -2.84244189978152   -0.53920716736189    1.22924279096843
O        -0.10439238593879   -0.04360114738176    6.00688776098415
C         0.38357611360758    1.30556457524431    5.93091720025123
H        -0.41430298813848    1.92616650429983    5.50211282082307
H         1.25382093227183    1.33931119796822    5.26666612051608
C         0.74088834523595    1.74309491602566    7.35597812354004
H         1.80810680619937    1.61150750943383    7.53538532144169
H         0.48300274885262    2.78346532600418    7.53931802248936
C        -0.05982119053303    0.77017145209212    8.21929312634990
H        -1.08778353728701    1.11365139258294    8.33370088801496
H         0.37578396816417    0.62284153928274    9.20429715297634
C        -0.00559714473013   -0.49258746351744    7.36743775327233
H         0.94956271667222   -1.01614194337285    7.50946970474016
H        -0.82874637801059   -1.19307966807525    7.54044474372185

