98
CSD_code = LIHJIV | q = 0 | S = 0 | Stoichiometry = C39H53N5Zr | MND = 7
Zr        1.01304611468666   -1.04197893044582    4.34498010590045
N        -0.51518938835723   -2.22661955297533    5.07882199168250
C        -1.59441660524471   -2.47558032715052    4.26956268258834
C        -2.45526310116600   -3.34170583435088    4.90484970633485
H        -3.38699830570845   -3.72567831443677    4.53531355244517
C        -1.88679372287374   -3.62959146575154    6.16335716677419
H        -2.32368677622276   -4.26768924089914    6.90769230631902
C        -0.69691685737814   -2.93258031352163    6.23925007177471
C         0.19986178766100   -2.72540947075453    7.44246690673634
N         1.99388141467619   -1.56721486454530    6.18554560501480
C         1.64900792487747   -2.49049575088823    7.08847733818060
C         2.80878345683455   -3.00550826628057    7.71755451152922
H         2.85043385197375   -3.72837520774035    8.50786851991829
C         3.89080734897544   -2.38745126682044    7.13567393710708
H         4.92258073488101   -2.54388041079754    7.38590947646320
C         3.37766148002817   -1.46176323453291    6.18660841498813
C         4.06711377022921   -0.44894567407585    5.50162221311528
N         2.02111815715127    0.78147826669237    4.94510512175280
C         3.40750349654660    0.64940411414113    4.93759218223994
C         3.96398613989701    1.86859619246356    4.45560434734433
H         5.00643233097676    2.09272639157846    4.33369428699977
C         2.91385725253426    2.71790591698430    4.20658454213666
H         2.99359987576818    3.73068559592141    3.86443047267679
C         1.72220081505620    2.00585434584790    4.50480886296819
C         0.30591461368191    2.52298165001744    4.56001610448783
N        -0.48444426774722    0.25978425738381    3.72795395113189
C        -0.69861127899022    1.60077695428201    3.89983129084338
C        -1.97259149384504    1.91856854260607    3.47051509149869
H        -2.44021937018816    2.88515332739315    3.46359999263028
C        -2.56806372092740    0.72180295689050    3.02470207976381
H        -3.56424428351160    0.62686492672711    2.63580004707111
C        -1.63146150841611   -0.27264141117003    3.19520335952451
C        -1.68121047480871   -1.76301188289762    2.93741394548366
H        -0.78032623585563   -2.02229277085060    2.35121587307451
C         0.06289205565164   -3.89918977201104    8.42651975510318
H         0.67810323996349   -3.69845792654149    9.30630365218783
H        -0.97289117081262   -3.95657305410067    8.75810837033668
C         0.45019111249852   -5.24286447243510    7.81462571581631
H        -0.19229465656839   -5.46956246322242    6.96849063600074
H         0.34054494248070   -6.03369271494017    8.55399107683357
H         1.47867646223916   -5.23756957681356    7.46445038115162
C        -0.23505390125077   -1.37766179605652    8.10457556392076
H         0.42522380275321   -1.17655059917190    8.95350856963436
H        -0.07491389184078   -0.59554807635569    7.34602929077087
C        -1.68602975836486   -1.32699165892304    8.56461217766848
H        -2.34940373655679   -1.59990522682380    7.74779750908147
H        -1.93141323334636   -0.31727269809238    8.88626659900294
H        -1.86163404059509   -1.99912957827744    9.40074720287073
C         5.57223081619247   -0.44758838738640    5.53939322960441
H         5.96061576704738    0.00696261599197    4.62711934232664
H         5.93882275651730   -1.47365587311400    5.58605493298680
C         6.09043498770494    0.33132845215766    6.75235451512001
H         5.75083164559458    1.36310500193689    6.71346256352356
H         7.17770684895217    0.32056511390428    6.76822584570690
H         5.72236440206213   -0.11324137879055    7.67349989277664
C         0.21822826943372    3.92666289594559    3.93451250430280
H        -0.77152152485939    4.33705198565777    4.13014141153645
H         0.94500841061355    4.58126212042633    4.42107561406788
C         0.44658651030190    3.91387530590550    2.42590853896814
H         1.40704965146359    3.47061324209629    2.17551841400435
H         0.41856728864641    4.92834943174530    2.03292636423783
H        -0.32935111885422    3.33027991384602    1.93758513596095
C         0.00113390529193    2.57498670370161    6.09176724424104
H         0.17779687308971    1.56418015837386    6.48330143487610
H         0.72143342848160    3.25197873056407    6.56108468470428
C        -1.41194588634494    3.00316960844511    6.46314053625418
H        -1.60508509918803    4.03307206059621    6.17387777551098
H        -1.54213673840428    2.92602667741750    7.54073180811433
H        -2.14139967102974    2.35932904078438    5.97861574360090
C        -2.91711358748515   -2.18837003065528    2.13883132849882
H        -2.97644343104093   -3.27961362787320    2.13472948441310
H        -3.80839841845449   -1.80846008205722    2.64015860509953
C        -2.87555070030190   -1.68399429360982    0.70062069632831
H        -2.73307212252433   -0.60698110903857    0.67965935219599
H        -3.80445759177019   -1.92284371691822    0.18714083551199
H        -2.05681094782192   -2.14701222367650    0.15300470498810
N         1.88223603307283   -2.29553003569798    2.91718038267412
C         1.71521564854420   -1.54457564807241    1.77832925257512
C         2.02147963330254   -0.22095812005655    1.83151913408729
H         2.61468115023900    0.18111314901054    2.64516605305663
H         1.82788969891308    0.43362777569121    0.99788141373208
C         2.07418385062104   -3.74742159143848    2.90359872146994
C         2.32079892370544   -4.16333567412363    4.36538536251930
H         3.16261057079493   -3.60471329377680    4.77671855983310
H         2.55681155733859   -5.22502928759724    4.41895912031463
H         1.42232118369505   -3.97618700160845    4.95824624025234
C         0.86384879553445   -4.57122936642005    2.41533403382985
H        -0.04572430076544   -4.21927139934658    2.90335240220549
H         1.01140107567884   -5.61514439949035    2.68536271307696
H         0.74070111907770   -4.52849422957795    1.33805261086407
C         3.33453344392164   -4.11773566115684    2.09788500006226
H         3.20850000071198   -3.92196772437404    1.03760034931121
H         3.56272045486886   -5.17374908587311    2.22297722102600
H         4.17864765201849   -3.52934231928756    2.45460161301952
C         1.19160998355906   -2.08096022025984    0.45582692632761
H         1.00055977450528   -1.24549005016942   -0.21389920858587
H         0.26675081579423   -2.64076121060833    0.57221608086498
H         1.92534781011614   -2.72848257642204   -0.02168908085667

