78
CSD_code = LIHKUI | q = 0 | S = 0 | Stoichiometry = C37H33ClMnN3O3 | MND = 6
Mn        3.68781872181131   11.02355947929130    1.92422502604373
Cl        4.18307505292426   14.05834221157991    9.47422393093454
O         5.48783034361690    8.82542055933445    1.15575032796982
O         1.10853889330369    9.89936091155855    1.10256203826060
O         3.49870204383086   12.22913212378395   -0.73559686315885
N         5.18697219105238   12.46144868493980    2.55916301705469
N         2.99754070066538   10.05182361162678    4.70153168683267
N         1.96065669654362   13.52801031242236    2.81258895277902
C         4.79062135334634    9.68075492118412    1.47126723433594
C         2.12907087956116   10.30944279391158    1.44980496413926
C         3.64693505976124   11.77318978896303    0.31022714198691
C         2.97912866585038   12.81269901045843    2.60811910262581
C         4.32004619133077   13.34700178334146    2.89440074285990
C         3.35373677238928   10.44022808716039    3.65149136641075
C         2.37609446258914    9.49133282653223    5.77280057567064
C         1.32636653148829    8.58930514542204    5.53999739225836
C         0.69360091586433    8.03459081531054    6.64044520371714
H        -0.11670171237693    7.33809181514183    6.48416390745184
C         1.08326899931616    8.36249205206972    7.92817040078640
H         0.57628821039625    7.91987337282032    8.77208140039753
C         2.11812863517670    9.25707953212681    8.13685918590773
H         2.41689856823556    9.51349123840469    9.14228280355197
C         2.78191740580153    9.83552003721733    7.06686885048588
C         0.90694937159226    8.26485130430275    4.14241184683916
H         0.16772639643209    7.46877285767437    4.13746793937944
H         1.76284672242051    7.95644974838973    3.54106455805291
H         0.47471268049523    9.14365089333556    3.66181305322580
C         3.91051750677565   10.79591724980305    7.27237391703667
H         3.81519130136731   11.65118007220055    6.60414999241516
H         4.86248150062409   10.30798599442892    7.06061744424647
H         3.92953293560947   11.15447357621455    8.29775330624145
C         6.57663065911266   12.65973623670707    2.63552774764726
C         7.30246318873244   12.06104793272397    3.67036780479551
C         8.67525592704609   12.24942212420899    3.71937437259290
H         9.23983685987940   11.79469194014258    4.52007661393206
C         9.32197477233262   13.00286988730883    2.75747651865352
H        10.39095256600914   13.14335178712089    2.80777604969051
C         8.59850417041656   13.56308364643662    1.72047849993270
H         9.10589752029989   14.13350539133060    0.95644369278567
C         7.22393945890737   13.40003997025051    1.63749146724208
C         6.59571387018974   11.23426484366010    4.69811533247642
H         6.01163325607518   10.44945050714575    4.21171725969270
H         5.90992132792994   11.84957860545463    5.28134583721094
H         7.30937835610728   10.77161493991361    5.37550125908075
C         6.45541500347747   13.96376611977986    0.48039045687816
H         7.11922323564852   14.50459766069476   -0.18920582491260
H         5.66666678804493   14.64249293200123    0.80489426918855
H         5.98533069970903   13.15539821019489   -0.08141243840461
C         4.60450690847754   14.68780642495548    3.51352523119119
H         5.60423153058132   15.02848862360660    3.23671870432276
H         3.85106960318602   15.39223814198607    3.15591044194961
C         4.50533047945850   14.55956426322330    5.01245008658585
C         3.26065020837344   14.54887861868458    5.63100768715093
H         2.37050999972068   14.65741921156717    5.02959088880548
C         3.15510749958072   14.39824020204731    7.00104465867581
H         2.18844238549518   14.38691512097613    7.47914057748841
C         4.30703536404628   14.25789225371386    7.76006873348793
C         5.55610423687545   14.27228685389385    7.16139724468978
H         6.44602588115266   14.16685574156132    7.76142319631099
C         5.64923664689148   14.42049316951290    5.78844660887833
H         6.62394730347293   14.43472546235413    5.32147921600658
C         0.64680786767223   13.14613739436825    2.57713398711261
C         0.05506947071875   13.48131161655076    1.35124580053817
C        -1.26434213561401   13.12822422101813    1.12433425373352
H        -1.71656326212664   13.37438342925094    0.17443734672364
C        -2.00023653651992   12.46589629301956    2.08989824676942
H        -3.02436769542027   12.18555470518660    1.89497668458214
C        -1.42152499859309   12.17984106144574    3.31149074424666
H        -1.99705424241544   11.68281739534119    4.07967171584565
C        -0.10377306099045   12.51928548992804    3.57910019006499
C         0.46388181805188   12.26423636252979    4.94564629318488
H         1.54944986474524   12.22200951254860    4.92695098408446
H         0.08028354882225   11.33168680735861    5.35481663758062
H         0.16945115838615   13.06948050620578    5.62092174108467
C         0.84239177303188   14.20867011735306    0.30247689201015
H         0.17564424564087   14.73603769778782   -0.37578432797701
H         1.43602134641170   13.50980329854875   -0.28641314406380
H         1.52293113317032   14.92463445744543    0.76155331370585

