25
CSD_code = LIHMIB | q = 0 | S = 0 | Stoichiometry = C6H12Cl2N4Pt | MND = 4
Pt       11.21949076402453    3.07427135169987   14.62317813422690
Cl       10.98370639170988    5.27786509080892   13.95706967156504
N         9.55995438126735    2.65869069271354   13.85818207037948
N         7.39323283455676    2.07464367011130   12.87243989320150
C         8.52937177663855    2.38592535940669   13.40502057145991
C         6.55389874247158    3.08828360415852   12.27385349719945
H         5.63973852827377    3.22260401991204   12.85923642472893
H         6.28205182710258    2.78813483664572   11.25917817495159
H         7.09180081039297    4.03293918203373   12.23398313118624
C         6.85915090834647    0.73732137566990   13.00305291170926
H         7.60118773651017    0.09011485420672   13.46549269728515
H         6.60681200424383    0.34399052514212   12.01550651920041
H         5.95702537590185    0.74478233446766   13.62141438842246
Cl       11.45466312595291    0.87093497988651   15.28937002298949
N        12.87872612808634    3.49026146321535   15.38854296801816
N        15.04479936994375    4.07489563295126   16.37523446224338
C        13.90895731301977    3.76323166388833   15.84227000575029
C        15.88439286877384    3.06160676371045   16.97404088027624
H        16.79882040869344    2.92776228468942   16.38895536184529
H        16.15573371646855    3.36185888503182   17.98882116359848
H        15.34691448932152    2.11669798707637   17.01369317768635
C        15.57851584580239    5.41234129327478   16.24439168476292
H        14.83601727932415    6.05943776703124   15.78252982408187
H        15.83139917747533    5.80559891863590   17.23181439235324
H        16.48023819569887    5.40520546363293   15.62542797087955

