43
CSD_code = LIHMOE | q = 0 | S = 0 | Stoichiometry = C21H16MoN2O3 | MND = 10
Mo        2.97507431359956    5.60510379600864    0.88908574585101
O         1.70384135145741    5.15939413178341    3.93627313894265
O         0.89117567104272    7.47077686298105    2.14496903417603
O         4.54161086977156    6.91399703282074    3.18445566026970
N         0.22700544121646    3.34345225380014    3.71725257930697
N         0.00994353974137   -1.33354284295256    4.37782778519273
C         2.92991938488774    4.46449239385233    4.01572111789404
H         2.78902432774376    3.50557538068882    4.54734287366144
H         3.58422360694645    5.09876590828400    4.61904480616555
C         3.51755315210863    4.17675498846901    2.64764135276858
H         4.51684192343159    3.74501716814121    2.70708692727776
C         2.62570469207556    3.61821949018427    1.69033217535312
H         2.87738138685415    2.75565452470959    1.07092236015341
C         1.33815377233342    4.22851194927700    1.72086554936630
H         0.57870933183867    3.82780807274038    1.04677728352589
C         0.76522827997965    4.54036020793290    3.09073883112471
H        -0.06370572589460    5.25799250867092    3.01897926270645
C        -0.66550461688599    3.37257827580405    4.76863766801234
C        -1.26598922120480    4.45004669185485    5.40680737601518
H        -1.04881681515901    5.46569486510933    5.11594165691182
C        -2.13425671868126    4.17145933570549    6.44135231123317
H        -2.61656172812052    4.98613046541475    6.96015583475520
C        -2.40211524576775    2.85937405441232    6.83993152650451
H        -3.08855141116614    2.68926233572315    7.65578169293087
C        -1.80318403718990    1.78626394875006    6.21853319884918
H        -2.00094626532362    0.77099323087343    6.52750564619809
C        -0.92189351724226    2.04433746042005    5.17209903147356
C        -0.12282821456747    1.20868893124152    4.32143863105352
C         0.55736072500166    2.04582621561864    3.47079767538648
H         1.25112722041419    1.77653897446469    2.69823681522478
C        -0.04742425427182   -0.18684730147958    4.34973546965314
C         2.84811209550995    4.68159909733825   -1.24662025254957
H         2.25465787696249    3.84349983746398   -1.59271862050440
C         4.20642368197010    4.61459714573045   -0.84831923694686
H         4.81418886514961    3.71899663392451   -0.83164520866496
C         4.67533831355414    5.92396823740038   -0.67716135810445
H         5.70167000188677    6.21449640396538   -0.49566528660730
C         3.59990228439488    6.81805557575758   -0.93982832291503
H         3.69673895760967    7.88841636902372   -1.08623322847060
C         2.47527350425910    6.03356544545509   -1.32471058786243
H         1.55543998107702    6.41812894185001   -1.74493314657305
C         1.67923957490768    6.77059225680299    1.69686892081544
C         3.95721364373929    6.42610274397981    2.32489531045303

