47
CSD_code = LIHNUM | q = 0 | S = 0 | Stoichiometry = C18H22Cl2N4Pd | MND = 4
Pd        6.84533204439864    3.45483613954412    1.57591954706772
Cl        6.81930812972855    5.34304924179204    0.39166065493316
Cl        7.08514172996328    2.27432710659153   -0.30160142019793
N         7.11205544381426    1.83415497497000    2.83081772996299
N         7.98042780296531    1.98711047306562    3.84951342067870
N         6.57869867964294    4.44845568859548    3.34678792111811
N         7.40586621270280    4.21160447834854    4.37763419849214
C         6.77180156544502    0.55998202732317    2.77613591641176
C         7.45037749750447   -0.13795492689020    3.78997711772976
H         7.38832634031976   -1.18552514490413    3.99998628208411
C         8.21176681083632    0.79436709117949    4.45640849173303
C         5.79546311101195    0.06231280451360    1.77857820133123
H         5.18442743177721    0.89620217198987    1.42473534429403
H         5.16456584073181   -0.71207783947313    2.20869685610364
H         6.32231014854411   -0.34597067458817    0.91703596330047
C         9.13865214942029    0.62109255691257    5.60294604033558
H         8.81320883275965    1.19658839453497    6.47027716422936
H        10.14663729808320    0.93411516376011    5.33144757629352
H         9.16614861376610   -0.42813431662579    5.88124365301400
C         5.61427533945172    5.24353912063917    3.76954628159287
C         5.83555749533374    5.54317090198836    5.12608458500288
H         5.23387675532655    6.16932997817926    5.75187084355732
C         6.97844749881995    4.86693600936601    5.48900214152196
C         4.51269498773339    5.65379881775258    2.86486140293649
H         4.44299027512678    4.93534240520262    2.03875033090814
H         4.72464848805338    6.63249927276026    2.43575982069542
H         3.56835521738758    5.70119054183510    3.40211972764142
C         7.68354124774668    4.80369536074784    6.79433866377821
H         8.71537171750493    5.14109950089352    6.69969526757483
H         7.68525824426306    3.78794347114285    7.19141846551466
H         7.17532237101023    5.44733074349105    7.50618304116757
C         8.50472287998064    3.28898334694224    4.21850512003452
H         8.99326822692370    3.16912756653106    5.19073260628532
C         9.53487782221066    3.81762961161821    3.18906885694290
H         9.00221755634614    4.19020039288476    2.29078348601641
H        10.07571735461929    4.64910473408164    3.64514812873806
C        10.46746927706180    2.70533388771753    2.79486194334627
C        11.56997460477196    2.38633316077334    3.57787479046680
H        11.80336908153997    2.98460135664788    4.44889427560841
C        12.37916014805463    1.31570381381800    3.23861874974650
H        13.23815834246051    1.07684134122885    3.84870459558622
C        12.08653318320627    0.55301801045840    2.12042114854879
H        12.71697232489941   -0.28398445921530    1.86010753047587
C        10.99216374206117    0.87148695329769    1.33346012912511
H        10.76420740090443    0.28728131963709    0.45548778203482
C        10.18574355299736    1.94513338078258    1.66685771738796
H         9.33418918078988    2.20149404815821    1.03884190884667

