63
CSD_code = LIHPUN | q = 0 | S = 0 | Stoichiometry = C30H24Cl2N6Pd | MND = 4
Pd        5.97038597801198    7.04942534255841    8.84315209247948
Cl        6.59960760642285    6.23246615842747   10.80783423477600
Cl        7.11251997809395    5.39499684550164    7.90487172821335
N         5.62506330760001    8.02900206605031    7.10420644770778
N         6.02353545692405    9.95465688908355    5.09824959683154
N         6.13908564506699   12.60824773203202    5.79871825060590
N         5.64816345034195   13.37215275126404    8.44538815574543
N         5.07431655659750   11.45979637346255   10.33532386742089
N         5.17712080960514    8.74851087902653    9.60831324490436
C         5.67035780787486    7.66107426196832    5.80533969839298
C         5.46386556479947    6.32803160935567    5.41844923397658
C         5.57574114218312    5.94677067505493    4.10430406457356
C         5.88336965452144    6.91565417730873    3.10987768728709
C         6.03006036844336    8.23323730941927    3.46290459099276
C         5.91291917920537    8.65278628634004    4.79977275733674
C         5.85762674014814   10.31077333276327    6.35170795888949
C         5.88955583617089   11.71481167932365    6.73210685582343
C         6.15888933807946   13.89866844902334    6.15408620501780
C         6.43048495475031   14.89319276167761    5.19445325227971
C         6.45227773857100   16.21825771139898    5.53902309468685
C         6.19543371041313   16.60830576844226    6.88627876570861
C         5.93041104977279   15.65755819752150    7.83555113518418
C         5.90561111686816   14.28877515560865    7.50419030298410
C         5.64067238254429   12.10558498552945    8.08793959304494
C         5.35831482230047   11.10232793391653    9.10358976760028
C         4.75555882811275   10.49365228317076   11.20793598318134
C         4.39290908935419   10.83527376543369   12.52279915195857
C         4.02353263235752    9.87991472317662   13.43560592644720
C         3.97326943004664    8.51265800227614   13.04796292040785
C         4.32778145677891    8.15083532304122   11.77194834899351
C         4.76540499787411    9.10781131304211   10.84353245220798
C         5.42034099686036    9.73154388079906    8.72922396260062
C         5.66427661756097    9.34192513890019    7.37459452750020
C         5.36976554567886    4.51780904299638    3.72195935005532
C         6.02325872144463    6.49742092159486    1.68156941681949
C         6.74517779888203   17.26093849582258    4.50734426801668
C         6.21776998393588   18.05755931874103    7.25573223122025
C         3.65142646100844   10.27194585592448   14.82931891605639
C         3.53270525154421    7.47104896996919   14.02343683713930
H         5.22241701994236    5.60816876450860    6.19073221827337
H         6.22936769487775    8.99361613834317    2.72405561804334
H         6.62089461662599   14.57187870929564    4.18198803204302
H         5.73471261430097   15.92706718111225    8.86203226451339
H         4.40699469672836   11.88260476279424   12.78106409038120
H         4.28772973344794    7.11669180462014   11.45264186281986
H         5.15707315235302    3.91609967245850    4.60044262019830
H         4.54359019581254    4.42152134153576    3.01811985105953
H         6.26285698678037    4.12239836439065    3.24061895652530
H         6.24638674535884    7.35308089635046    1.05054167285348
H         6.82561374166567    5.76826567714767    1.57749684514589
H         5.10552689499667    6.03053049277689    1.32633214845556
H         6.91957110230466   16.80187160346050    3.53825647400123
H         5.91204365406384   17.95701042914293    4.41812570620352
H         7.62793267648906   17.83600565767973    4.78405473596691
H         5.99943814112238   18.18672830646965    8.31208482049660
H         7.19497510804032   18.49108721026012    7.04670135515877
H         5.47991123645603   18.61193918338704    6.67710695832764
H         3.73326595180047   11.34713743713556   14.96122283104893
H         2.62941737672918    9.96884193273804   15.05324734123370
H         4.30569372677340    9.78109701969590   15.54850820738804
H         3.56639087111467    6.48570141192084   13.56839800758179
H         4.18421835819602    7.47068706396545   14.89596427161548
H         2.51780969726836    7.66796657186566   14.36756623559639

