131
CSD_code = LIHPEY | q = 0 | S = 0 | Stoichiometry = C60H58Cl2N4O6Pd | MND = 4
Pd        4.48792997987370   10.91389961456292    1.08451294540335
Cl        6.63912432773578   10.29442067107123    1.03708699051655
Cl        4.31872188010408   10.44010439043629   -1.10964497614956
N         2.44978661339893   11.11754789905143    1.15895355759424
N         1.79167526883045   10.21773744920809    1.91339465142818
N         4.32141779661445   10.97589085681449    3.19039951017474
N         3.32456221335195   10.22612211645535    3.70520825008005
O         4.01295046712405    5.26291955710863    6.10088597237838
O         7.55618965983276    7.94730409544807    4.70765248459037
O         9.83814591043923   13.30912009150514    2.87518122761404
O         9.34045058716881   11.76484544158668    7.34423575525613
O        -1.56648624997620    6.51952753146382    4.44860073805655
O         0.36606529926430    8.12084095713155    8.36277203431788
C         1.55604393878584   11.75188078196373    0.42201953793308
C         0.27634978502986   11.25175368499702    0.71929659768858
H        -0.64998774425244   11.56311518177596    0.28282266325326
C         0.45670359914855   10.27716121363692    1.67400707454608
C         1.94158611324535   12.81893674931153   -0.53234763247086
H         3.02790615257596   12.91241990146505   -0.53682724741626
H         1.48527436115917   13.76799845547878   -0.25285723590600
H         1.61072333668799   12.55854893846221   -1.53581613411515
C        -0.53339350601374    9.40147945588158    2.35010785204031
H        -0.31370245001339    8.35020217968693    2.16890080763858
H        -1.52490940915522    9.61648495117374    1.96289974099410
H        -0.54449671704588    9.56505024416890    3.42801038664586
C         4.95217000418197   11.53737345844418    4.20555069634831
C         4.35056554614925   11.13643692682610    5.40886490051935
H         4.64728384324759   11.42182591068244    6.39636742158054
C         3.32048743443858   10.29702683012767    5.05972132105786
C         6.09924703421437   12.44766041198071    4.02105041438082
H         6.51687953983766   12.29905251241342    3.02749655564309
H         6.86148186865049   12.24594628030142    4.76836858232850
H         5.77973692578443   13.48395738588223    4.12069765310920
C         2.36470681741431    9.56281691750363    5.92260752162447
H         1.32924700099470    9.79661755522922    5.67451707131141
H         2.53957864308446    9.84453569022200    6.95678016988609
H         2.50923149573020    8.48659266463398    5.82577445706869
C         2.48384638526870    9.39195334138958    2.87908577790781
H         1.72907456814595    8.95118502575794    3.53893084087887
C         3.29862330641494    8.24365746296971    2.22661294510507
H         2.59630534681264    7.51444105403877    1.81845801790264
H         3.92119560797561    8.63767450297506    1.39837942719457
C         4.17876679557952    7.62679368890385    3.28473941117426
C         3.64985736001882    6.67599676635729    4.14662639551314
H         2.64052781699785    6.33146140376173    3.99620103289208
C         4.43212148317331    6.19181336441805    5.18930398745404
C         5.72981413134356    6.66169722452163    5.35188073970960
H         6.33166567342568    6.28002617913966    6.15973991693432
C         6.27334659247628    7.59574620621319    4.46983858075336
C         5.47573314865304    8.08462192003496    3.43730695797838
H         5.85607267633492    8.82090273635209    2.74522423501739
C         2.77783310000115    4.61151880498336    5.88146449415067
H         2.75922381991366    3.80961497128565    6.62734591093522
H         2.75708565737876    4.15495277272536    4.88331109498807
C         1.57965569089154    5.51176219553290    6.07459164339823
C         0.54558339948669    5.51392329023183    5.14958808372806
H         0.57965159465934    4.82482051231777    4.32059984003548
C        -0.51870436536588    6.39515296335181    5.31198219156341
C        -0.53681046719611    7.25649397383479    6.40225434377002
H        -1.36024443376425    7.93979293097694    6.52846360189332
C         0.48840242143955    7.23648885166171    7.34242478451142
C         1.55428201727825    6.35768709376964    7.17251127168131
H         2.37849797545595    6.32071234466361    7.86597697454217
C         8.31858904112708    8.67814172734944    3.75318284852884
H         7.82346400395031    8.74704411376757    2.78351682383130
H         9.24252500278167    8.09734803802850    3.61886453073026
C         8.70753252837305   10.06041676634851    4.22163719538554
C         8.82085677564085   10.33699114281716    5.56943121138356
H         8.56984025607873    9.59228403734528    6.30681432800931
C         9.27189661358427   11.58901965056867    5.99045761623731
C         9.60442395242214   12.55032019201423    5.05211999140060
H         9.98105744374638   13.52105712291526    5.32822589049717
C         9.46914993038630   12.27631441012176    3.68786617232872
C         9.02249402111023   11.03048747336618    3.27307761008010
H         8.88472617153550   10.79551895782689    2.23175257456436
C        -1.67173896942076    5.61356311206555    3.37056741550256
H        -0.80442490773164    5.70442753732497    2.70016711016901
H        -2.55859198316796    5.95370442140217    2.82317657276787
C        -1.85655226715070    4.17380295063983    3.78607771878754
C        -1.40688080126192    3.14633836358247    2.96714489850419
H        -0.91438398249625    3.38081104920644    2.03345714372193
C        -1.58897304767309    1.82671262431001    3.33977333550507
H        -1.23771121634920    1.03428229094659    2.69578781128282
C        -2.21449690680676    1.52349732557670    4.53731715002889
H        -2.35179407623099    0.49331100080050    4.82969036961293
C        -2.66276028505423    2.54450099334726    5.35751719877010
H        -3.15230132739949    2.31357475619827    6.29183150222936
C        -2.48882388298063    3.86451421943326    4.98221712509424
H        -2.83947708465721    4.66298617681436    5.61932337466056
C         1.34028333595841    8.11747024699398    9.39048457715759
H         2.34002043320391    8.29908648974118    8.96548960351091
H         1.35308377624310    7.14474219144870    9.89952510887294
C         1.00435004757408    9.21468246646945   10.36555694538892
C         0.67550931268618   10.47983573247829    9.89593335576373
H         0.64696754248647   10.65720663862634    8.83136752640703
C         0.37198132039332   11.49724835651635   10.78188673770389
H         0.11277858436036   12.47654771992446   10.40745150040514
C         0.40244012939807   11.26237259400567   12.14625740890762
H         0.16757713127008   12.05727583665748   12.83830327202729
C         0.73228579397415   10.00458607894876   12.61986431843481
H         0.75454169865605    9.81518593076172   13.68277111540535
C         1.02752748119773    8.98341495331770   11.73327157885420
H         1.27922395115539    8.00151957882139   12.10713299302339
C         9.85412692628158   12.97922515527991    7.84102497238582
H         9.72499906896004   12.90118938098435    8.92757776398170
H         9.25101774124479   13.82815099383873    7.48793219441344
C        11.31311653587303   13.21156062581141    7.52723657025891
C        12.16427534519507   12.13901408210323    7.30107812137355
H        11.77078387921924   11.13400928496513    7.33594702060141
C        13.50207687047869   12.35596944409866    7.02456041138453
H        14.15507066843503   11.51490172176616    6.84382170643617
C        14.00305367052416   13.64546978865305    6.98080905989156
H        15.04765623475878   13.81477547608054    6.76527434584363
C        13.15971161171609   14.71901666252659    7.21206443056172
H        13.54495697830636   15.72760822425673    7.17763510581474
C        11.82009977622340   14.50350977131896    7.48049958420964
H        11.16158877619867   15.34347018075145    7.65428440341129
C         9.51041471043102   13.29531814002339    1.49776273820024
H         9.75001317026907   12.33129416734166    1.03731375205954
H        10.16738838527414   14.05719931390376    1.06002634200978
C         8.06745052298208   13.65953567207026    1.23173752733185
C         7.36707319491276   13.08630482424458    0.17980329906717
H         7.86786027953368   12.40108228890337   -0.48792977537519
C         6.01848915126478   13.36596158569608   -0.00806059348504
H         5.50079481937938   12.93210879502442   -0.85817958179095
C         5.37126373541049   14.25187971106626    0.84580779145115
H         4.32552179389078   14.49207042002156    0.70087305650343
C         6.08995466624553   14.88523799559179    1.84902950550339
H         5.60213495558483   15.61021753514476    2.48609718964150
C         7.42754287776621   14.58971927366775    2.04217609409928
H         7.98359344148892   15.06170767990403    2.83901058330630

