65
CSD_code = LIHQOJ | q = 0 | S = 0 | Stoichiometry = C26H35O2PPd | MND = 4
Pd        3.55659103421612    4.44134767493012    3.09842657207630
P         5.24313823613213    3.05281698232969    3.36629746545155
O         2.66115987847104    4.29651486283452    5.07832066610143
O         1.98588600573263    5.75697903600888    2.63276197272830
C         4.38834976363814    4.65071919757527    1.28372238818096
C         4.12588362220495    5.76641430777755    0.49685610184618
H         3.45535542258869    6.53634434472384    0.86097132499738
C         4.70497243541692    5.90992283776443   -0.75560875648144
H         4.48697404278506    6.78468422197857   -1.35211907489585
C         5.55986739061254    4.93801759771432   -1.24326045840721
H         6.00876130750575    5.04604353625092   -2.21994240742818
C         5.84007136677430    3.82310623017448   -0.47236719892197
H         6.50803329073283    3.05890323054465   -0.84795430757750
C         5.26983832333170    3.68276742837731    0.78398456980179
C         5.53538870484342    2.45104189028120    1.62344207532471
H         6.55795827999496    2.07567527176351    1.49498904906208
C         4.55187460585694    1.40391157979589    1.16998207093893
C         3.18493952915946    1.67876971240886    1.13595212990909
H         2.81113930923296    2.64299846672698    1.49806531047151
C         2.29407992366373    0.73992256245422    0.65026990741002
H         1.23804940687743    0.96442363689926    0.63112352702274
C         2.74897438035320   -0.48470316783149    0.18630736616475
H         2.05074448910580   -1.21523445127351   -0.19403892154449
C         4.10356678136124   -0.76267890406578    0.20736403499874
H         4.46910996833009   -1.71118943424174   -0.15821508245263
C         4.99773418241681    0.17798099737391    0.69055788435291
H         6.05671963471634   -0.04464950673406    0.68684239063467
C         4.97168551465790    1.54824757480438    4.48433710205184
C         5.93128288727836    0.39101587141965    4.22041220564527
H         6.95928593327415    0.65155901319802    4.45201003508475
H         5.87420571181805    0.07377032574936    3.18234860238617
H         5.65022075197680   -0.45599616994093    4.84568719302405
C         5.03356530073656    2.00676440055946    5.94201730007534
H         4.68139101270771    1.20697478964682    6.59321745340777
H         4.38104928479839    2.86924063681399    6.07449388056964
H         6.04304442393871    2.26055325493388    6.25341022853000
C         3.53052974798862    1.09207774241909    4.21901680849701
H         3.18600199620683    0.46477701072330    5.04026433557253
H         3.45426670609553    0.51351634369930    3.30330915630689
H         2.86371244771430    1.95925714219941    4.15155438291922
C         6.80373226064903    4.01592613319529    3.85297074956965
C         7.22759926876488    4.90942661703347    2.68412385208994
H         8.06738185316259    5.53023128937288    2.99600562422077
H         6.40902569827189    5.56709882818773    2.38936282606338
H         7.54090769179138    4.33251539654447    1.81821440834611
C         7.99463261496616    3.14890107096490    4.25501851814165
H         8.86222918733855    3.78459548318059    4.43030047272494
H         8.24786843918737    2.45032030050486    3.45982728252398
H         7.80617064450359    2.59188898203423    5.16800378694530
C         6.36930609029639    4.95116213578281    4.98847995160056
H         6.19399439179441    4.41894790771313    5.91813374622057
H         5.43935605063664    5.46676312233173    4.69983138428339
H         7.13692515167177    5.70297271459193    5.16878099286693
C         0.05202084409544    7.10450186742912    2.78074727041476
H         0.29570119725647    7.27893343749305    1.73531204297068
H         0.07575527192379    8.05022272111192    3.31887564492099
H        -0.95285743612385    6.69419344178701    2.85400564626104
C         1.05663113069427    6.13852221938204    3.38715520737833
C         0.84187055219239    5.78162415467274    4.72237466655247
H        -0.01241701035351    6.21934043603390    5.21712816236847
C         1.63628178277247    4.90976128385672    5.47105191293080
C         1.21181924096164    4.67580082891481    6.91158876270291
H         1.88870152559781    3.96904548761778    7.38595211142151
H         0.19876364551605    4.28066166550494    6.94228617225412
H         1.22899687728682    5.61463439593424    7.46115952044797

