65
CSD_code = LIHRIF | q = 0 | S = 0 | Stoichiometry = C23H29CoN8O4 | MND = 6
N         2.62947464955442    3.32050528052453   18.95111643533394
C         1.81797646788880    4.07295470155930   19.26394479669881
C         0.72291245222017    5.82555638330641   17.23246646903711
H         0.06529031586261    6.02570218778598   16.38914492012038
H         1.47177533202800    5.09996668914635   16.92399252391964
H         1.23099235268493    6.75021899328467   17.50065913810745
C        -0.08637814554876    5.29351438788080   18.41686630575270
H        -0.84127245419337    6.03592613653590   18.68218136758328
H        -0.59636321585340    4.37555108578254   18.11863838494432
C         0.82237731648937    5.02364218625722   19.62292534485992
H         1.35056013492951    5.95262957079616   19.88123943653283
Co       -0.09444143421671    4.44086485921433   21.35201117887324
N        -1.83901897319092    4.56795941276774   20.64224805754521
N         1.61900285354923    4.29099764631565   22.12168961653164
O        -2.47297017605092    3.56803954032497   20.13337908369420
N        -0.92456764300893    3.91880781698081   23.17941874712939
O        -0.67005203608674    1.80300048705305   20.30087829591560
O         0.50787361652274    7.09792788810082   22.31965884156073
O         2.20245115977492    5.27486708722111   22.72158864157156
N         0.19440824019251    2.61976605326469   20.95897498401523
N        -0.39038514795392    6.26349161018157   21.73432585604182
N        -4.32789101476909    1.63598446250739   23.53405584898150
C        -5.20320734399745    0.57471956314892   23.51669828985897
N        -3.49411023218401    1.70177535036105   24.47925285015658
C        -5.44027531821818   -0.27126719171989   24.60897608551170
H        -4.89420658623848   -0.10098606113326   25.52480820361638
C         1.75938035773718    0.73890057012350   21.14034204663773
H         0.91886212306731    0.14027347314190   20.79994351925187
H         2.18698871703400    0.30536296192688   22.04078067318193
H         2.52156594750508    0.74712643304590   20.36187784870825
C        -2.55052189631165    2.69207237156136   24.44492980156652
C        -3.82246712841038    6.00699780855564   20.39872051958804
H        -4.22147881295849    5.11965436524094   19.91202299894361
H        -3.86449192189745    6.84610365861500   19.70612200622117
H        -4.43941660057383    6.24431778193385   21.26478686652278
C        -5.91623897543698    0.39094453142867   22.32630301551662
H        -5.71157068354540    1.04829972699136   21.49567399164670
C        -1.56295494590109    6.70962923747733   21.42391251256479
C        -0.47857456554942    4.45853588158654   24.31454893483638
H         0.34101827799286    5.15923517842835   24.24402240920331
C        -1.92838586279250    3.05906383495431   23.24180339041400
H        -2.28872340442968    2.60663266775578   22.32705429686429
C         1.31779323676440    2.14027650864873   21.37906780142696
C        -2.06428537481093    3.24796204582548   25.63362395888162
H        -2.52443100004382    2.99086909192221   26.57498656723898
C        -2.41308040069242    5.72570349661510   20.81114226452731
C         3.48957851576689    2.77206817075324   22.61508913786580
H         3.91303275503654    3.66982516388844   23.05984634227078
H         4.14116123350384    2.42726038195311   21.81424585253457
H         3.42359652307455    1.99227601765120   23.37263531799497
C        -1.01856268307948    4.14349353204878   25.55332810859186
H        -0.61604608191768    4.60553576600115   26.44068873315929
C         2.14176151784750    3.10267655494764   22.06369304996220
C        -2.01128552714571    8.11181399956599   21.66708177549154
H        -1.23166848250068    8.65956453073528   22.18977899036459
H        -2.92315045325874    8.11886072221581   22.26144024762762
H        -2.22121434486494    8.60654818312299   20.71989581536878
C        -6.83457706440298   -0.63384886882011   22.22826664351506
H        -7.37726536007551   -0.78473794469849   21.30721277486178
C        -7.06879664925272   -1.46493449022088   23.31446489858648
H        -7.79730956908249   -2.25831156146094   23.23815974467787
C        -6.37421747267760   -1.27879493172897   24.50273150832137
H        -6.56641891159544   -1.92727470897991   25.34512232265497
H         1.32589696899639    6.48021885124131   22.52507445168018
H        -1.48675717132202    2.40938287857592   20.10213915682765

