65
CSD_code = LIHREB | q = 0 | S = 0 | Stoichiometry = C23H29CoN8O4 | MND = 6
Co        8.42072937627966    0.21784078129223    3.56583731246164
O         9.04410963157858    2.87019015777605    4.52875669537139
O        10.80697827355200    1.09291755509173    4.77618268937654
O         7.84023534930076   -2.41512009713612    2.53995729183406
N        10.17205954377952    0.09382920388825    4.26037826975306
N         6.67029562713380    0.34144508905487    2.89448239537424
O         6.05171946913873   -0.64485921855877    2.33863467054708
N         9.19019325831017    0.73516040051859    1.69454434731250
N         8.14080860709100    2.03791529881657    3.95233390830060
N         8.71582335306628   -1.59453739555901    3.17581209769222
N        12.59602840318916    3.00706944136461    1.19651700824724
C         7.65666913141910   -0.23005644626358    5.36255474296826
H         8.47201431056553   -0.22254928383861    6.09232356516684
H         6.96955302277010    0.57620820427086    5.64045735083880
C         6.13766596164557    1.52720146629796    2.97253476838920
N        11.70726728599547    2.95726647602143    0.30208559568399
C        10.19956873570141    1.58523491768377    1.59723818121186
H        10.60470558135224    2.01978779101268    2.50165671952845
C        13.46821702930244    4.07239739529115    1.17802728149301
C         9.87931046058416   -2.05099536103985    3.50408694069024
C        10.76367914568957    1.96926644206977    0.37082939887288
C        10.72599900043578   -1.07762977467666    4.13826648028390
C         6.58172539310156    3.93045493066256    3.75770620747053
H         7.37180152084720    4.47984772812898    4.26261400598867
H         5.66831194929322    3.98707959759998    4.34711828369728
H         6.38762345454346    4.38787395770267    2.78873952784932
C         6.26473855974498   -1.64842087181241    6.88650706833087
H         5.53575583266235   -0.84540003699273    7.02843860189166
H         7.03538447748083   -1.55608442199707    7.65795413845518
C        12.11580957171782   -1.38158398813044    4.59874483060684
H        12.53365675227368   -0.48434176176322    5.05008866269335
H        12.74347208753313   -1.68576995885113    3.76213614795079
H        12.11188936775733   -2.18395724762576    5.33491355793069
C         6.99467428871463    2.50688085511325    3.58294024530829
C        10.32526680963537   -3.45204808445407    3.24962260147523
H         9.51787027038738   -4.01459615901424    2.78852252767239
H        10.60948496821691   -3.93003396688406    4.18547450617810
H        11.19166153445055   -3.45859732922814    2.59005806248879
C        13.62653130174526    4.94510744063981    0.09284755620776
H        13.02114645898855    4.79323354282548   -0.78828706305781
C         6.90332238572892   -1.54714254563904    5.48659101034320
H         6.10984129115283   -1.61816949371924    4.74076452515880
H         7.57226809125207   -2.39902807395007    5.35338198152707
C        14.25961810277938    4.23317341779499    2.32104986937111
H        14.11637983030497    3.55445896759584    3.14728528352165
C         4.76731706341005    1.84533742506681    2.46504701489081
H         4.32932259273489    0.93564217357366    2.05992484707158
H         4.80874178294811    2.60155120048678    1.68214318408589
H         4.13461418082208    2.21841207254082    3.26902717647628
C        15.17744449640394    5.26147886185109    2.38132213908968
H        15.78106167111527    5.39398802253791    3.26664277620261
C         8.68484148248183    0.21743539988542    0.57452403810959
H         7.86676998360439   -0.48108270025384    0.67570145672257
C        14.55931260597985    5.95733879714800    0.16016315333129
H        14.69022134501887    6.62641693204400   -0.67772377328682
C         5.59742158262536   -2.91019165046372    7.05875095818635
C         9.16629132783453    0.54767555721839   -0.68445588551014
H         8.71779872827763    0.10310620194853   -1.55862972994201
C        10.21349070747774    1.43728901232974   -0.80121279848875
H        10.62834385536994    1.70713710334887   -1.75995758227202
C        15.33180497638371    6.12064523370372    1.30270840182681
H        16.05917804309623    6.91746922792973    1.34909558597252
N         5.07499137139414   -3.91962049131556    7.18548075660218
H         9.85690413031036    2.24689554866200    4.74203311847373
H         6.99096321449931   -1.82754346962739    2.41650531200662

