71
CSD_code = LIHTUU | q = 0 | S = 0 | Stoichiometry = C29H36ClIrN2O2 | MND = 6
C        10.76078362687339   10.10409545673644    3.42481032561645
H        11.23128652512898   10.49149838120311    4.32635808133851
C        10.30438430944426    8.77140631730383    3.50540719802914
H        10.45867256184103    8.26267390091716    4.45278829911820
C         9.09423271233631    8.22626153597254    2.78042145820710
H         8.18359112478629    8.58199536066002    3.27581991614046
H         9.11326730158663    7.13899692440822    2.88593355835405
C         9.06306572757711    8.58712673881047    1.28591666345686
H         8.53811336765729    7.80004061645250    0.74061819748622
H         8.50783748341028    9.51325480214494    1.12883029598365
C        10.45463781826441    8.73786806871522    0.72165633336582
H        10.76321344220753    7.94601661103423    0.04532575763761
C        11.11866948669318    9.94202420031363    0.64709827107200
H        11.89759924885550   10.05389234263916   -0.10438008329087
C        10.57896982991113   11.25447748106600    1.16284910213477
H         9.78544564643434   11.60675352071069    0.49428462020990
H        11.38508065892694   11.99044026333065    1.11753049194893
C        10.05279149203123   11.17032165842217    2.60857118876564
H        10.19137786664310   12.14197976309398    3.08884605308672
H         8.98054705345965   10.96648706991956    2.61126492706583
C        13.40287221928746    8.48616942223998    3.71061715010305
C        15.33672902401032    8.64987316338615    4.84117298912836
H        16.31737365687831    9.02111136041074    5.05911306990298
C        14.56098566872617    7.75968636833786    5.49523420122891
H        14.74237648438010    7.18218079105712    6.37809819646690
C        12.34712879197718    6.77845947119370    5.17515583992818
C        11.59581248017290    7.06638243892929    6.31927254026016
C        10.59657025587550    6.19031408146458    6.69620145998212
H         9.99374731250758    6.38504942281001    7.56878234471796
C        10.33286043728189    5.03880211197262    5.95477672554830
C        11.09712828014439    4.76434020710499    4.82863296006171
H        10.91915693207718    3.87711821763211    4.24229827355300
C        12.11377969060172    5.62323645604562    4.43126020711873
C        11.85461717265947    8.31329620976833    7.11133893698987
H        12.73733672939225    8.19448357394735    7.73921378338587
H        11.00821393219663    8.53437089322869    7.75539892433837
H        12.02461111093254    9.16006740071173    6.44891054611846
C         8.99398600460300    3.08630909598282    5.71226948480488
H         8.68062759154503    3.30872426178422    4.68734680228959
H         8.16226023572436    2.63768544803616    6.25316416915214
H         9.83270293539859    2.38296193089762    5.69227945579257
C        12.94854296232077    5.30747406632841    3.23400864093398
H        12.79233646364991    6.05499312694370    2.45434135949940
H        12.69893379270349    4.32972769910528    2.83269469479708
H        14.00755885684178    5.32357845505289    3.48826470619909
C        15.19612547523253    9.92444123428177    2.76180352913240
C        16.16756946758922    9.39099399743667    1.91244357231550
C        16.72771925568220   10.20373401035187    0.93789397093417
H        17.46017354905505    9.77364965282423    0.27377914913894
C        16.34243618642015   11.53142469927184    0.80994551878118
C        15.40821454879838   12.05620611391386    1.69897663748546
H        15.13791751124296   13.09598930583451    1.60262184921308
C        14.83371760257646   11.26970322812032    2.68014082988957
C        16.57638814798328    7.95435561880355    2.00482567532289
H        16.83609375126913    7.67002256855828    3.02269516077003
H        17.42575963663442    7.75569013833980    1.35733831410007
H        15.73956473900963    7.33624452616981    1.67833624297944
C        17.73111762234886   11.91118757037147   -1.08373628285716
H        17.93756929996917   12.75046179754838   -1.74634063301078
H        17.29702408938121   11.09038530016211   -1.66305766048289
H        18.66700691392857   11.57695330344117   -0.62344508729564
C        13.83876335716204   11.86727518963940    3.62564866912408
H        12.83351599238665   11.69131237651100    3.25094677135203
H        13.99364321906309   12.93991376002187    3.71011725970599
H        13.91539863006648   11.41864895192655    4.61393412177414
Cl       13.50857732165109    7.88223811361159    0.73463778724342
Ir       12.01486191390156    8.82829209770811    2.26164547642633
N        14.62219718271207    9.08069073354237    3.75351071879409
N        13.38701867639170    7.66415867669153    4.79120569573787
O         9.31941249215408    4.25885690858228    6.41897405834194
O        16.82689711144167   12.39806343811221   -0.12223946294177

