81
CSD_code = LIHVEG | q = 0 | S = 0 | Stoichiometry = C33H44ClIrN2 | MND = 6
C         9.83635695062174    2.54345927947806   -0.12682796664557
H         9.29105379299956    2.94880397363255   -0.97551863334815
C        10.60165252275065    3.47539617329379    0.60550770472846
H        10.57937312800196    4.50312796864936    0.25599961605054
C        11.90204591985182    3.16256030389779    1.31144023249921
H        12.14830724482781    4.02301865407129    1.93813874679504
H        12.70405286917597    3.06309581120800    0.57068680458688
C        11.83151078087102    1.90292246560737    2.19082276421233
H        12.14804580075760    1.02453770125441    1.62576550962908
H        12.52407144321939    2.01438874903097    3.02772033548824
C        10.43918950500841    1.67667984759572    2.72677070455392
H        10.32561523277976    1.85407882194029    3.79209389649838
C         9.50212112491117    0.88241317926474    2.10409391601175
H         8.71255867410473    0.44646068185613    2.71302742303914
C         9.71051173255715    0.17583103614419    0.78626891889769
H         8.74647070940727   -0.22719466345631    0.46664482744614
H        10.38200384653752   -0.67763416148612    0.93416037870376
C        10.26235081105636    1.09920310162769   -0.31592643038514
H        11.35232755912864    1.04882739949454   -0.34256875115553
H         9.90676857460434    0.74144152037002   -1.28557400253645
C         7.67049694926496    4.39532177797010    1.09250400567272
C         6.71957565412438    6.32083872130090    0.39142918595756
C         5.77000084086933    5.35049727223450    0.33611529889536
C         6.32743560700889    8.59252524895761    1.36091561768528
H         6.17167002021849    9.63777785890847    1.10520580012465
H         7.16556612169904    8.53026025489218    2.04998590396880
H         5.43532816065628    8.22187126835843    1.86112578482633
C         6.61327267599490    7.77817838142832    0.09661726340353
H         5.80677509218761    7.92996084253211   -0.62287859274672
H         7.54200849527533    8.13598061536982   -0.34898936630182
C         4.37032741197182    5.40741806309825   -0.17613146274884
H         3.94553189235533    6.38741081659081    0.05053049449643
H         3.76599515988702    4.64636011443085    0.32026430536028
C         4.32332811313812    5.16874000882849   -1.68774678827104
H         4.94330915242442    5.89432901172208   -2.21013072248288
H         3.30240434805412    5.26025306633513   -2.04999304718029
H         4.68319144337870    4.17100937482166   -1.92401599655751
C         5.64968709814438    2.97896158070556    0.98800279468939
C         5.73796178101001    1.92583291449174    0.08253138899496
C         5.02997935370497    0.75913692092014    0.34496986382498
H         5.10994880874221   -0.06449654089984   -0.35081125441899
C         4.23093344188421    0.63394425227998    1.46746972391707
C         4.12335075718338    1.71767262988561    2.32961824851177
H         3.49182815030852    1.63596299716304    3.20246764199046
C         4.81535594485358    2.89631713199757    2.11052165597723
C         4.69822454381543    4.02743434245097    3.08255803218451
H         5.60749634303123    4.05572590756854    3.68445031345131
H         3.85019277625777    3.87440813330830    3.74455083713887
H         4.59141875769517    4.98909463117844    2.58536406448872
C         3.48099739587296   -0.63140023785492    1.75427842351647
H         3.78744920280251   -1.03861253605817    2.71675406024997
H         3.66506548059937   -1.37813650878310    0.98596658315632
H         2.41019686974576   -0.43635828122102    1.80214615907890
C         6.55328431874900    2.01277511433450   -1.17221462917443
H         6.88099210317230    3.03015532262176   -1.36610332996340
H         5.96939029780304    1.65940333742009   -2.02159784730683
H         7.43366617876987    1.38090516821964   -1.08553826018397
C         9.07913139090597    6.42614566256848    1.08820703593328
C         9.44916709039867    6.73938986952760    2.39973344001747
C        10.62524541815690    7.44388446405936    2.60061545510735
H        10.92508629476192    7.68715922605534    3.60974908279578
C        11.42777849683663    7.84543043607690    1.54061026680176
C        11.03428266410683    7.52620987676806    0.25170355603811
H        11.64852692727712    7.82483105647367   -0.58592630548276
C         9.86695655615325    6.81474346907667    0.00506445111193
C         9.50602296522650    6.46529551423237   -1.41077003346318
H         8.68752755378774    5.75171649340752   -1.44986597340058
H        10.36693291046667    6.03160879465800   -1.91664574205626
H         9.21529054397385    7.35850636361913   -1.96421602136292
C         8.60080712433743    6.31883266417898    3.55421945713160
H         7.55750865152383    6.58764115825756    3.39782210749971
H         8.94937181001816    6.77587733040783    4.47605152158880
H         8.63514664760135    5.23431971968657    3.66906085870996
C        12.68786504330854    8.61373442360854    1.79947384618402
H        13.26666068605600    8.73411484056296    0.88740433936010
H        13.30054632198256    8.10127641915490    2.53897744316354
H        12.45160003932724    9.60259019770380    2.19188660902008
Cl        7.70925598403112    2.87385291059694    3.75342478550059
Ir        8.91869198767279    2.92681201648185    1.75769059128852
N         7.87033199997106    5.71758005501591    0.86297642886382
N         6.37013992629045    4.18567021684146    0.76863465035079

