69
CSD_code = LIHVIK | q = 0 | S = 0 | Stoichiometry = C29H34Cl3IrN2 | MND = 6
C         1.15254813071586    9.19019066256534    7.66977133302346
C         2.63480943070088    8.89913160026826    9.33519141999189
C         1.39023304041703    8.78231447407681    9.86885852774066
C         3.57338934508897    9.18337281844826    7.08365831351585
C         4.21331891292371    7.98318035435703    6.75212342076359
C         5.27123162142928    8.03322374382467    5.86060177200020
H         5.76435512638827    7.11358480767222    5.58137710564259
C         5.71075103306758    9.23051098978126    5.31020144105204
C         5.08945367512887   10.40482569857318    5.69778081381334
H         5.43626380242311   11.34952426500952    5.30349947077062
C         4.02742995228635   10.40387423523078    6.59364046123847
C         3.76033602277469    6.67371169224387    7.31376276244766
H         4.43156323774527    5.87827722050879    7.00250023373347
H         2.76237599797589    6.45196703082648    6.93569510509971
H         3.72159265094218    6.69127645313926    8.40087688669669
C         6.84663781554944    9.23476211887160    4.33343878637544
H         7.73982051627060    8.80791030484366    4.78864087202934
H         7.07318836839935   10.24478017247635    4.00079758256257
H         6.59494459317269    8.62872419621003    3.46386910836229
C         3.42494241496696   11.70912980083024    7.01385997478350
H         2.77214189096973   12.08428316618314    6.22908119028684
H         4.21101461903998   12.44397494766111    7.17944845630376
H         2.84405947582226   11.60554533076825    7.92658249061260
C        -0.91286308545899    8.89520030774380    9.02624976024315
C        -1.56117587719292    9.96941240469140    9.63476038537105
C        -2.93329612576588    9.88947980494584    9.82472436428634
H        -3.44682784111375   10.71738684191631   10.29175947040031
C        -3.65343624928080    8.77420171029206    9.42468225675819
C        -2.97573372958826    7.71602305773960    8.83361704155457
H        -3.52981777018918    6.84006449786939    8.52917053369215
C        -1.60469497731655    7.74931885964068    8.63135042624474
C        -0.79888950081702   11.18503344705529   10.06961302341825
H        -0.31278591816998   11.00379715012054   11.02801852717953
H        -1.46997454135376   12.03207651625860   10.18578244193614
H        -0.02930399135294   11.44257658042518    9.34420899951634
C        -5.13618324606064    8.69753329511002    9.62371729126176
H        -5.64066608096475    8.60443415011253    8.66293094421298
H        -5.51000754570496    9.58469108870037   10.12784054859018
H        -5.39363132027216    7.82293286628810   10.21913111305807
C        -0.88178278221171    6.59125527401958    8.02765152136958
H        -1.56392590399908    5.76694676892839    7.84181643816483
H        -0.08801568069259    6.24725067366797    8.68974470452681
H        -0.41740601005676    6.87882127111585    7.08378918028946
C        -0.63503316698179    9.49658219850270    3.88447492234094
H        -0.76840837410567    8.45282408506130    3.61390854559437
C         0.61937894394491   10.04671980163443    3.71512573866661
H         1.40107395918253    9.41870215350134    3.29170628254149
C         0.90444094570249   11.52565639729669    3.60216140289320
H         0.59026761013905   11.88037429452189    2.61443112289475
H         1.98643674780545   11.66289363706814    3.66329869478831
C         0.22723912634785   12.36031665503863    4.70531689704271
H         0.83956830764723   13.24317616429535    4.90361014116374
H        -0.74564138173707   12.72043176022570    4.36723627142737
C         0.04585345210943   11.57726648376588    5.99234780585622
H         0.53947422845050   12.02868250722329    6.84904624526807
C        -1.11487843418813   10.83371966456462    6.27936703786106
H        -1.41591284173994   10.78008314587470    7.32111982176817
C        -2.30078595360694   10.68796333738549    5.35305606744800
H        -2.87994455145380   11.61823668172300    5.35633145635754
H        -2.94329257850101    9.90694465699146    5.76553041202604
C        -1.90713334063564   10.30993923653034    3.91556883566683
H        -2.71479105329498    9.72825657415408    3.46736424707929
H        -1.77778258721055   11.20531816692047    3.30586820284196
Cl        1.26889834999299    7.37837501695302    5.25059422559884
Cl        4.16232523446096    8.85441407074286   10.09031859590266
Cl        0.90560044059522    8.44467749233230   11.46652231085576
Ir        0.44837328440184    9.48648887236928    5.78692760454511
N         2.47382506361175    9.13906734324924    7.99097091923844
N         0.49606507244129    8.95927695106239    8.83827969140928

