54
CSD_code = LIHYOR | q = 0 | S = 0 | Stoichiometry = C23H23O5PPdS | MND = 4
Pd        2.99032649065543    2.41602221194028    9.29382327235636
C         2.60190432187384    4.60467273806775   11.29705373168154
H         3.43478743719857    5.17767667702663   10.88216766888636
H         2.06277228441461    5.25412655096809   11.98551507800230
H         1.91684707327246    4.31879634168442   10.47552990223214
C         3.11805717621599    3.36339658014329   12.04213544602141
H         2.28650980611174    2.83639890509904   12.51554171830134
H         3.81109583683377    3.67567641993523   12.83208297684582
C         3.82892141919764    2.37532373483095   11.11060367826191
H         3.97205589066067    1.41789487308676   11.63312352355879
O         5.21067573099997    2.86006577626869   10.93716365758152
C         5.49316142414266    3.50078668916021    9.83775173996832
O         4.72309582900084    3.62103370314622    8.89427216990261
C         6.88247779920598    4.08068550494943    9.80622019683855
H         7.57508997146045    3.30764399744125    9.47825658870003
H         7.17715011354710    4.40850894533488   10.79855479994211
H         6.91826891522389    4.90384923896769    9.09875855672710
P         1.46105954713826    0.82736491430672    9.61527340112049
C         0.84784751525810    0.08662615228772    8.06230430966698
C         0.47882944572751    0.94618089332075    7.04028930120638
S         0.82312638944310    2.65950556674527    7.40279876567082
O         2.28742328325992    2.71913119268220    7.28718387000512
O         0.38607435234752    2.78228901477288    8.81015700053824
O         0.12474904812405    3.50211039419076    6.47868592936067
C         0.00238783934340    0.48437859056706    5.83296130819156
H        -0.26155954258760    1.20142202496952    5.07152603017293
C        -0.12569388468635   -0.88280781479124    5.63826048013675
H        -0.50775688571928   -1.26471075382946    4.70351055109983
C         0.25483756653812   -1.76030297891895    6.64266643490656
H         0.17123952442630   -2.82578560617473    6.48469942803007
C         0.74839721192531   -1.28759531552796    7.84781092378806
H         1.06754992579181   -1.98510479458068    8.60990461282504
C         0.00881296025662    0.78614170085542   10.70740347479149
C        -0.27546110341785    1.88294775233256   11.50983259552482
H         0.34995782707195    2.75814372597377   11.42694821230100
C        -1.37075771410511    1.86013095797407   12.35427904252193
H        -1.59259983601503    2.71633814125196   12.97413782108166
C        -2.18965754205223    0.74341307520459   12.39939885385562
H        -3.04616508038045    0.72544328100510   13.05716218098857
C        -1.91831329865336   -0.34579141117932   11.58779109399599
H        -2.56481663432551   -1.21119322346142   11.61002952006965
C        -0.82354934870371   -0.32740941897665   10.74121643547123
H        -0.62530606118909   -1.17305463824485   10.09874282351391
C         2.49332357056922   -0.59983669851759   10.17435122550866
C         3.69493203482919   -0.72039324220433    9.47129586314166
H         3.91007067241088   -0.00590428287057    8.66222780616613
C         4.59620050988825   -1.71743222765515    9.78724120460397
H         5.51909549032515   -1.81448434688232    9.23433044878989
C         4.31864721586810   -2.59269471461834   10.82893240889966
H         5.02562533419626   -3.36778179098171   11.08489447486647
C         3.14310036820412   -2.46348511164672   11.54602162424023
H         2.93365839110634   -3.13589974022005   12.36517481918028
C         2.22999913434710   -1.47121856395756   11.22031722546218
H         1.31509425334735   -1.37203959130870   11.78678379249642

