105
CSD_code = LIJBIR | q = 0 | S = 0 | Stoichiometry = C50H39F6N7OsP2 | MND = 6
Os       11.50010066703264    4.98533284840172    2.55892645486986
P         9.27871888976933    4.72840968395537    1.91949774106104
P        13.50391388722243    5.58832574783862    3.62345332938911
N        10.34653953231593    7.52273218554477    3.98569002805301
N        10.92421971535562    6.90132852546060    2.99550060908303
N        11.99222249407017    5.89168131770613    0.82813838173544
N        12.52531321562583    3.87047378527614   -0.31353743292348
N        12.25072789478187    3.23034148968401    1.96627044593859
N        11.14552955296275    3.87266775949130    4.22961673939592
N        10.55316791859181    4.04391803448964    5.37748005565348
C        10.28723475036018    8.82577650113528    3.65884718429766
C        10.85053103865612    9.04915061851902    2.40544734753289
H        10.94508845111432    9.98044316971183    1.88768708488633
C        11.25347777595186    7.77509760849701    2.00626990591795
C        11.83381560931702    7.23908343773054    0.80703386433500
C        12.14988733475350    8.00842147859222   -0.30500691577864
H        12.02247285815258    9.07655924796776   -0.26620313637902
C        12.60405825348391    7.36621884982412   -1.43987040616291
H        12.85996269240776    7.92339497509827   -2.32755808183102
C        12.71845043382517    5.98644198718984   -1.43694764371542
H        13.04566504784117    5.47750082567754   -2.32711419537149
C        12.41146696570169    5.26332639392136   -0.28050398442990
C        12.70349081944773    2.95926246989377    0.73454293527167
C        13.34462035555525    1.75002331362068    0.45514856829592
H        13.71067412967962    1.54594279393957   -0.53624794893449
C        13.52475833184343    0.81414214219037    1.45860983680308
H        14.03798510233337   -0.11052884164891    1.24714017530778
C        13.03315805707610    1.07987277552690    2.72239892327058
H        13.13168409573753    0.37419160726800    3.52998542718924
C        12.39263632556797    2.29131019455898    2.94282611735754
C        11.76164999210383    2.65791537759921    4.18150459142804
C        11.53625885377737    2.01463148376381    5.40090247905253
H        11.86198037687964    1.04861839988351    5.72639002570379
C        10.76951395779354    2.93700762119900    6.10976390204494
C         9.69106245504088    9.82801821921217    4.57092277010557
C        10.23459800258693    2.80183047894648    7.48521939560170
C        12.38942329046833    3.26259223655824   -1.60608596850626
C        11.13137123568518    2.82534236912486   -1.99238459555559
H        10.29553261647767    2.95302039350597   -1.32106427410672
C        10.95983333795672    2.22241925734404   -3.22665463151290
H         9.97861492711121    1.88313316975987   -3.52145716623074
C        12.04111030343496    2.05537998530682   -4.07436808582965
H        11.90713639681256    1.58455804906750   -5.03623527670425
C        13.29878087036665    2.48974647018971   -3.68736692164465
H        14.14386018122286    2.35677962141917   -4.34601882104836
C        13.47744829022648    3.09209291641864   -2.45479793731720
H        14.45679898899654    3.42806403166880   -2.14496191348271
C         8.15299685814357    4.64028720216706    3.35422127505600
H         8.47683713356359    5.38265550893848    4.08423569218073
H         8.25309907079986    3.65527325570089    3.80833239332690
H         7.11934185407652    4.80116125893817    3.04826272622743
C         8.69318090821324    6.18046522915644    0.98968165706467
C         8.01795485896124    7.22467399556690    1.61261803696911
H         7.73841686964889    7.14811228026333    2.65198613268228
C         7.72586710098741    8.38005652932705    0.90917571939475
H         7.20865201743429    9.18874253047398    1.40365446655911
C         8.10536340138790    8.50649618812888   -0.41637453108803
H         7.88080469110984    9.41218120584759   -0.95988974762148
C         8.77961102856208    7.47112781322878   -1.04372284882768
H         9.08263641803756    7.56654548846079   -2.07656198689553
C         9.07864115631865    6.31887186410945   -0.34285384090045
H         9.61573313904782    5.51419491439916   -0.82989812435927
C         8.66978253165640    3.32154144041951    0.92024188420694
C         7.70825550200755    3.43506379798007   -0.07741256751370
H         7.26906031763483    4.39764144139726   -0.29740310544592
C         7.31328332310858    2.31526770133575   -0.78932887499705
H         6.56692485480994    2.41049425623697   -1.56460793266224
C         7.86865363680012    1.07711992903918   -0.51093272037722
H         7.56145748234643    0.20814956474619   -1.07368624624872
C         8.81258616764191    0.95360215991273    0.49632127524391
H         9.24042358107367   -0.01156470003576    0.72420195836170
C         9.20875954125378    2.07038634613528    1.20798912655265
H         9.94024514430737    1.98233710300431    1.99996100026852
C        13.42318329210561    5.47747301971149    5.44550065302740
H        13.45631900742129    4.43115884861601    5.74740606265513
H        12.46035912878927    5.88376637185787    5.75828915854484
H        14.23817156846404    6.03258560833930    5.90997006570049
C        15.01930884670669    4.65983779312787    3.19076267989556
C        15.88285094869073    4.11157482180635    4.13204123737967
H        15.71804002449893    4.27499414344381    5.18555507808986
C        16.96617902308505    3.35176294692120    3.72579766361008
H        17.63102795294094    2.93141852886312    4.46607262596819
C        17.19986329787472    3.12526108910394    2.38038427662187
H        18.04305960355813    2.52678432070300    2.06941265973243
C        16.34575746943559    3.66748881139102    1.43454680852060
H        16.52183618333589    3.49349744138754    0.38266632989687
C        15.26315986422369    4.42391407784733    1.83878945797916
H        14.59146634940405    4.83917732200811    1.09980101753117
C        14.00027568981934    7.32889394001380    3.37941209710625
C        14.72573736930498    7.72250685470540    2.25934568697074
H        15.10295567254116    6.98159437374346    1.56921731397563
C        14.98033961588269    9.06145629642942    2.02590612664496
H        15.54669991358087    9.35397984858227    1.15343773612303
C        14.50457375748372   10.02384906092369    2.90037635728442
H        14.69556061668300   11.06964845867311    2.71103249387856
C        13.78016048697678    9.64009437237358    4.01627941107964
H        13.39885651836088   10.38394124848964    4.69976537131138
C        13.52655074314947    8.30221555552880    4.25597654373865
H        12.93624500080164    8.02326148607934    5.11487113028139
F         8.42203613824935    9.54719324490257    4.92211469486782
F        10.37262325670181    9.97307942666259    5.72560142946062
F         9.65577287330709   11.05545075762626    4.01274941256676
F        10.79802723160389    3.65951885284127    8.36128709082148
F        10.45453645762439    1.57007241447733    7.98947558676922
F         8.90785123497212    3.00507134991185    7.56791594269362

