46
CSD_code = LIJCAJ | q = 0 | S = 0 | Stoichiometry = C12H23F3NO4PPdS | MND = 4
Pd        7.05886548339453    4.40700020156529    2.86342412327731
P         6.21198858570863    2.37491838036481    2.70764458792350
S         9.22659682032075    5.41257634938029    3.41546996477701
O         8.02275714067983    6.14442783854281    3.76259439753971
O         8.19652419822258    2.03060463114833    6.13047782671867
O         9.12938344317590    3.97200115094749    3.60224449545013
N         6.72935652285696    3.55353988841674    5.39892587245608
F         8.11091046480049    6.25425065570768    1.12012667323128
O        10.45621281953898    6.00236134269397    3.82259155456291
C         3.92555228443211    0.67023882698886    2.68299625144588
H         4.44775510672662    0.00825693532521    3.36985787631174
H         4.08395736345670    0.31320278342341    1.66900980245501
H         2.86079101076497    0.60121857167805    2.89774247468093
F        10.26567511974610    6.10594031337649    0.97564639257491
C         7.25649576074012    2.41106795258379    5.24176137630465
C         7.35472403041348    4.18319852549244    6.54482201823596
H         6.59288411740274    4.37841986035844    7.30504784896173
H         7.79781204484640    5.13357533221397    6.23859466796692
F         9.03312897471174    4.32743954904122    0.96290010546796
C         5.41806624596288    5.38446017549913    2.15818608333013
H         5.56022008113070    5.56182625574641    1.08723642426431
H         5.47097801410660    6.33404838384630    2.70419051361392
H         4.44437066037642    4.92980135268881    2.31969306573351
C         6.88701546192735    1.44296620208724    4.16981983265482
H         6.15225991863600    0.73080325187165    4.55494570692098
H         7.78837554580077    0.89603610382341    3.88955072566199
C         6.77784496596005    1.41113325219994    1.22633724622591
H         6.26222985315523    0.44779826351796    1.16973149930181
C         4.37798024676725    2.11896702859750    2.84140678965102
H         3.94850449404227    2.70820286661624    2.02456848644589
C         3.91698262416883    2.71567635245600    4.17023087378263
H         2.84238455064446    2.88470344791346    4.15914828209866
H         4.43092131921270    3.66131770875636    4.35257158716060
H         4.14736792473659    2.04400848091573    4.99313694951136
C         6.41542103826116    2.27014161284526    0.01649533137683
H         6.88477938020044    3.25263944798318    0.11801785782362
H         5.33812431885466    2.41117106459447   -0.05098712432060
H         6.76182602982798    1.80687912282907   -0.90478257981629
C         8.41319925140285    3.14546985049636    6.99716121776070
H         9.43569133774830    3.50256900048596    6.84999877707174
H         8.28200103705373    2.81042471048599    8.02889313480218
C         8.28892596645468    1.19155150714320    1.31142559209580
H         8.70889895805990    1.08491687637501    0.31383767405174
H         8.53059002024273    0.29114462282340    1.87187637966034
H         8.77067196449516    2.04462641338161    1.79306770452582
C         9.19009749883792    5.55287755485739    1.52156365821532

