52
CSD_code = LIJCIR | q = 1 | S = 0 | Stoichiometry = C16H29NO4PPd(1+) | MND = 4
Pd        4.50698770432705    3.89639839638791    5.69291128481192
P         4.37800166875313    2.67739121298372    7.56453914547825
O         7.92078012074216    1.48560796030718    6.11735466835829
O         4.54321706880008    4.60023338912410    3.65370056191503
O         4.36826019850703    6.76034924413592    5.31459502026775
O         3.87861477411543    6.25344936225524    7.45943334983952
N         6.40230910514195    2.98143539677667    5.51105511400949
C         7.45687929510217    3.15616098169876    4.52602980114787
H         7.83418930040531    4.18202492715891    4.56973007849654
H         7.05782314060168    2.97624071702973    3.52400880551791
C         8.50516431113639    2.10513352686486    4.96059427511513
H         8.67768438179163    1.33082957905964    4.21055461814722
H         9.46073810258136    2.54303271912528    5.25523085129065
C         6.74178964404213    2.05772174067216    6.32524207831776
C         5.90491204123273    1.60669619520199    7.46930415643252
H         6.49838919965701    1.66484492914271    8.38536964450914
H         5.63658589754647    0.55582745994518    7.32715036899028
C         4.46948144739527    3.41644484452540    9.25688743845448
H         3.61643349441006    4.10297412690664    9.31497984929076
C         5.75904448653952    4.23919132997809    9.31112306805400
H         5.70372384563483    4.97795729243609   10.10617525856856
H         5.91486142477335    4.76137080814840    8.36166000773886
H         6.62407466605978    3.60884844362807    9.50636116569480
C         4.38602379950217    2.38829967226155   10.37933474564464
H         5.18315517721338    1.65152544354888   10.30732495929948
H         3.43304950458591    1.86602930383913   10.37210330260230
H         4.48450576441526    2.89271047945348   11.33811064405936
C         3.01897204043147    1.42383123778853    7.45148004081833
H         3.24849332880957    0.58764325753707    8.12210711098690
C         1.67909993057136    2.04431800591026    7.83189959335074
H         1.43140252130046    2.84664811262740    7.13938251042759
H         1.69401109791949    2.44698964703272    8.84165442493130
H         0.89358352282045    1.29386030639653    7.77818593396850
C         2.99545962732647    0.94846088229601    5.99725442076815
H         2.14623873500844    0.29013340769732    5.82876908465248
H         3.90119646501683    0.40337508799956    5.73399091285123
H         2.90095704241548    1.81643913188948    5.32177470035221
C         2.80293339466877    5.02022338710342    5.75499538445561
H         1.99500953121001    4.89415786091671    6.47696453355275
C         2.34890062703629    5.21164232871604    4.30915648577837
H         1.78533948264791    4.33674208925101    3.96248806428670
H         1.70338078618536    6.08909973353906    4.21045344895442
C         3.57635989847356    5.32442917591558    3.44028584549305
C         3.53966535436061    6.25445117396372    2.27767395859820
H         3.67526542382718    7.26719916537065    2.65664542103672
H         2.57683851142288    6.21020215107062    1.77452703049195
H         4.34650727463577    6.03529310375779    1.58319651036611
C         3.74882051332238    6.08685839987722    6.12456355411853
C         4.73901265189894    7.32026786048709    7.85720888890706
H         5.74045665503061    7.18181375136955    7.44364708815796
H         4.76141926912126    7.30322261366116    8.94299545965513
H         4.34229674960101    8.27256864522387    7.50093533098161

