64
CSD_code = LIJDIS | q = 0 | S = 0 | Stoichiometry = C27H33ClN2Ni | MND = 7
Ni        1.25337321783517    3.77965157430527   12.47696911778349
Cl        0.34932727256131    3.54428066558646   14.34275100354308
N        -1.42723889255751    4.59795102167970   11.77599929291267
N        -0.81437728701895    2.80512806033737   10.73184223295433
C         3.20455807868716    2.77006994851585   12.83633909888216
C         3.19760916400182    4.18296451052952   13.17371403512535
H         3.51812423732815    4.57431609533964   14.12861638363131
C         2.97583191390443    4.92540821570385   12.01248777606249
H         3.05356676667996    5.99582705389839   11.90468086587627
C         2.64807780583865    3.99028951919483   10.99255189985942
H         2.52984429023316    4.22712042931730    9.94398493815172
C         2.90446253998010    2.66373936739333   11.48981494095091
H         2.90940003985414    1.76558242161621   10.89505314692267
C         3.60809780696519    1.67740445636912   13.77206770306135
H         4.66532358419480    1.77751290844488   14.02629495848049
H         3.44788307686081    0.70424663996717   13.31173755578039
H         3.03401138483023    1.72797569115674   14.69669173835677
C        -0.41104490661841    3.76030737022543   11.57352220093572
C        -2.62589786061789    4.24160073065725   11.02188513252870
H        -2.86851233112020    5.03964170613357   10.31190197586761
H        -3.47542128242841    4.11122670843362   11.69444547527569
C        -2.21264113537626    2.94008860892740   10.33469829438575
H        -2.78461707080430    2.07681586487274   10.68946120432315
H        -2.29924587799208    2.98411160527903    9.24614405584998
C        -1.38265950471463    5.79843152756782   12.53790125211848
C        -0.69917284487987    6.90087587929764   12.01925876657063
C        -0.66103167139775    8.07142783306330   12.75974297077357
H        -0.12562653656112    8.92505234130702   12.36827660832349
C        -1.29390758354883    8.16897687724599   13.99020091111483
C        -1.98406650000283    7.06677165297408   14.47099863597529
H        -2.48090407556712    7.13100765742080   15.42829589871908
C        -2.04345876234150    5.87460548922164   13.76477729229700
C        -0.02915722262309    6.82317002587599   10.67933025174317
H         0.46764144487395    7.76087534413825   10.44515524480099
H        -0.75584451772796    6.61041032688768    9.89469888977765
H         0.71304918470798    6.02402210023430   10.68001284037811
C        -1.21592968237091    9.43020730339084   14.79521195871414
H        -2.13545057391593    9.59144096950270   15.35329022253724
H        -1.03266920775916   10.29088721192215   14.15629918458260
H        -0.39714913848933    9.35900223908039   15.51152152518288
C        -2.79456279525729    4.70673310502994   14.32374464755445
H        -2.92654655582346    4.82783347279646   15.39488991863482
H        -2.23912503116646    3.78848327114788   14.15060306104986
H        -3.78284026892770    4.62658381383968   13.86852054953231
C        -0.02793151940845    1.72991468817403   10.23659231546344
C         0.50410517726299    1.81241028818192    8.94889771327678
C         1.25223194470289    0.74834617562575    8.46935901519489
H         1.67473745429335    0.80656247981629    7.47608182693951
C         1.48022446904425   -0.38356668402157    9.24012160312919
C         0.94636773003401   -0.43652511366884   10.51873954021712
H         1.12613353188200   -1.30692067803512   11.13363216764017
C         0.19093984999114    0.60604907540349   11.03616962259925
C         0.28923959709630    3.02598842728272    8.09336245595910
H         0.17141160177227    3.91790358282555    8.70481903986034
H        -0.60417666199573    2.90715867902323    7.47831787441035
H         1.13415747608891    3.16876043961482    7.42362615043667
C         2.29424110823881   -1.51539819069981    8.69053063022623
H         2.42384287324960   -2.29893283680716    9.43243674564241
H         3.27684959421544   -1.16208779988668    8.38079553713457
H         1.80440840397429   -1.94256405419136    7.81604895730147
C        -0.34667073396547    0.54725143535692   12.42906602831131
H        -0.12615026963447   -0.41131436253720   12.88958759799292
H        -1.42347201986231    0.70674374444132   12.44548985103551
H         0.10992770131834    1.33776108832656   13.03373966941614

