62
CSD_code = LIJDOY | q = 0 | S = 0 | Stoichiometry = C27H32N2Ni | MND = 7
Ni        3.22054854772336    1.49250468343573    2.98755367987948
C         1.47406106639648    1.86747241433305    3.80994359592868
H         0.60870271884354    1.95428148585127    3.14872850321085
H         1.24724882541979    1.07978310803509    4.53768387000105
H         1.56928960114057    2.81653626818805    4.35347820596876
C         2.66327848908908    2.08852301389752    1.25950771119570
N         2.83764874622930    1.39211149141970    0.10902154688341
C         2.34742407723151    2.08557439036817   -0.96587859713113
H         2.38634964892114    1.69361760398400   -1.96138491608599
C         1.84411472870965    3.24261064811542   -0.48520081280756
H         1.37858430857928    4.06749722509728   -0.98362924949025
N         2.04329108908928    3.23083239471412    0.87052166225951
C         3.45347133167923    0.11903221886865   -0.03215878181057
C         4.70304031827237    0.04131052622407   -0.64530397553084
C         5.27596064321528   -1.20959783065833   -0.82277219154776
H         6.24918897068321   -1.28015718260102   -1.28763642710006
C         4.63281895188219   -2.36553660669769   -0.40582237757549
C         3.39383426723981   -2.25555890640280    0.21188702152608
H         2.89353038326871   -3.14956903636734    0.55556687035002
C         2.78784521578736   -1.02543874013636    0.41061841931756
C         5.42371161091670    1.28372409199647   -1.07584960619898
H         6.47480625148827    1.07009990175034   -1.25266201236348
H         4.99815920762614    1.68304013623069   -1.99695472685853
H         5.34604281453952    2.05344125720354   -0.30940941600985
C         5.27297296320633   -3.70864899529327   -0.58252656094854
H         4.53563036350863   -4.45040257314355   -0.88253028792084
H         6.06118212890434   -3.67031227028498   -1.33038209375857
H         5.71273570594060   -4.03736828077040    0.35955876477481
C         1.47852448054943   -0.90959981622906    1.12288981568066
H         1.07185464332828   -1.89093782665319    1.34952171642880
H         0.75473769624447   -0.35249568245149    0.52875574120732
H         1.63346572154019   -0.36220595784363    2.06340358500351
C         1.60019503205463    4.29402792741921    1.70319339927421
C         2.53642853434483    5.12447554001685    2.32083420360516
C         2.07959661245372    6.17455970199803    3.10031379595238
H         2.79778111333423    6.81883945470146    3.58676412786283
C         0.72374675735128    6.41679422546860    3.26993586597903
C        -0.18428573934266    5.58247591550055    2.63642492647694
H        -1.24323523774598    5.75834466527225    2.76057811965372
C         0.23183274064357    4.51906769594574    1.84845723941262
C         3.99851435063576    4.87017775435053    2.14539445877387
H         4.58952332547275    5.62507174544695    2.65615810663901
H         4.26932099305365    4.86104684659178    1.08955640799960
H         4.23698458729884    3.88692605173897    2.56543106625283
C         0.25381827883827    7.54223846441337    4.13989418195527
H         0.19212558377603    7.20661065728252    5.17539809962734
H        -0.73290694193634    7.88374469731097    3.83659926704116
H         0.94710763306877    8.37922745586383    4.09972305484643
C        -0.78436181829244    3.64429051163656    1.17563521489364
H        -1.71320911071534    3.64701062850144    1.74031709461568
H        -0.42901247310364    2.61972911665865    1.09294818777360
H        -1.00134895127348    4.01163806750482    0.17201203691248
C         5.36303490186343    1.28967292786183    2.91676881207764
H         6.11195955654556    1.66433054627268    2.23140143925775
C         4.99658368967830    1.88474001182149    4.13510726632476
H         5.37333486474015    2.81138995435348    4.54074065187641
C         4.10348811141009    0.99876607088241    4.77461010338958
H         3.73286506099552    1.10924335493831    5.78400975162502
C         4.05621046140443   -0.22018834026140    4.01852615011442
H         3.59316432658441   -1.13930023520570    4.34364391964899
C         4.82339143478087   -0.03703598118733    2.87739232917436
H         5.07899680488512   -0.78787858728220    2.14649204447774

