42
CSD_code = LIJFES | q = 1 | S = 0 | Stoichiometry = C18H15N5O3Re(1+) | MND = 6
Re        4.84484481455426    4.37397555571040    5.32122936869000
N         3.19596230983994    3.86082781099607    8.10966528485980
N         5.13710575105871    4.77394273083795    8.25436079673838
N         6.44221083930699    5.40495954887213    6.46698116499811
N         6.03621367750387    2.53435493807993    5.73919134819343
N         6.54974651410299    0.41021426529642    5.99135136919063
O         2.63840382805364    2.66865272866289    3.97898438351358
O         6.35976895839670    4.59605890920270    2.62137283712560
O         3.32877810842204    7.03724797669209    4.89068468676970
C         3.44260171022976    3.32193670829400    4.46944879279133
C         5.77636118772711    4.51609757229095    3.59480250222187
C         3.87426739782994    6.04492944137494    5.03010791864389
C         4.22561728520289    4.27420497876293    7.36491633306129
C         1.96848213880234    3.29172836293953    7.62188609575390
H         1.94878371614800    3.36115343361970    6.53572063034208
H         1.11939057242428    3.84010481698670    8.02983806216321
H         1.88670471995296    2.24640897574317    7.92415110657377
C         3.44340033538455    4.08499999116855    9.44192111101522
H         2.73932360687894    3.82562060781504   10.20547637065040
C         4.66185254607338    4.65984386527619    9.54009208470253
H         5.19802372109910    4.98779421878476   10.40493401379048
C         6.31446432671669    5.36682684129172    7.80174285802594
C         7.27176706930975    5.89237333000716    8.66180130615315
H         7.14270002552170    5.83823465329468    9.72971808025317
C         8.39364188390202    6.49042369042808    8.11620184869771
H         9.15231086149488    6.90869357289388    8.75818028658044
C         8.51876544221660    6.54699731844319    6.73544908780168
H         9.37143384487739    7.01323296776189    6.27083275752025
C         7.52246045161577    5.99175131481721    5.95385236470109
H         7.58724946481846    6.02165634807238    4.87440278103596
C         5.56293651222670    1.30710776188397    5.87833811216515
H         4.52116268862845    1.04848152788158    5.89081687797016
C         7.39117762369041    2.42358846410744    5.76300736331560
H         8.05038138548501    3.26349983928030    5.65827121724583
C         7.73244827146175    1.10141793466555    5.92004996975400
C         6.42517172589056   -1.01329787117607    6.13179983483234
H         5.37259984453675   -1.28319737602357    6.18315380723733
H         6.93268476437621   -1.34732645271828    7.03820162770053
H         6.88395575736066   -1.51469513101469    5.27805653344261
C         8.99171019375505    0.48880465715723    6.00152414032242
C        10.06421477638588   -0.04657592776105    6.07246874895843
H        11.00771934673603   -0.50295490069497    6.12701413448920

