107
CSD_code = LIJGAM | q = 0 | S = 0 | Stoichiometry = C36H66Cl2P2Pd | MND = 4
P         0.54320180861473   -1.26366854341917   -1.83764800605516
Pd       -0.00001039474119   -0.00001153384042    0.00008902593769
Cl        1.22425642857966   -1.45657536405424    1.27212383576000
C         2.31295467108288   -0.82901560949288   -2.24285673623151
C         2.47479358821124    0.65109365440116   -1.86549862572446
C         3.87929128450438    1.15000653538583   -2.18457626936769
C         4.91006409482004    0.30842984676582   -1.43930221125587
C         4.76085439723619   -1.16100909761335   -1.81922326901315
C         3.35430300244097   -1.66643872219378   -1.50177577860563
C        -0.36515558494670   -0.85673382233648   -3.41308051782354
C         0.16769484736287   -1.36214866334050   -4.75183623415734
C        -0.63762816330168   -0.71367056138203   -5.87907336678930
C        -2.12191438693059   -1.04242345134923   -5.74725938889162
C        -2.65237361015302   -0.59542051855930   -4.38822979683908
C        -1.83914183280002   -1.23919969344077   -3.27021767971208
C         0.48084650084146   -3.08769476132901   -1.49714865007468
C         0.69121779686915   -4.03712954938132   -2.67048044398509
C         0.79668830620698   -5.46634216809938   -2.13916105475645
C        -0.46890156703571   -5.84372054128691   -1.37300407212052
C        -0.72298940093214   -4.86570314035955   -0.22823752976237
C        -0.81472619618635   -3.43823663847548   -0.75923177509032
H         2.47342982378226   -0.94446144434101   -3.32152964446981
H         1.73052613013217    1.25687072138458   -2.39647280733414
H         2.30160684650543    0.75522774508924   -0.77483225879199
H         3.97285845045895    2.20008743107396   -1.89982822245302
H         4.05716908132331    1.07780991335960   -3.26084143700950
H         4.75672432465078    0.41865368891273   -0.36347128968643
H         5.91876717494787    0.65487373854745   -1.67344384172458
H         4.95827657275660   -1.28017683187672   -2.88832857490691
H         5.49267609629936   -1.76203681692843   -1.27595067856472
H         3.27846451467711   -2.71470741841707   -1.79748378407441
H         3.17876943789769   -1.59993583516343   -0.42565737952996
H        -0.31702880469925    0.24238020576350   -3.43157333088637
H         1.22165648389314   -1.11149053193259   -4.88270983405959
H         0.06839782817559   -2.44496390745073   -4.82438800136867
H        -0.50401367688337    0.36984480348506   -5.84048799262229
H        -0.26363876290002   -1.06362613839527   -6.84423266337681
H        -2.68162537939192   -0.55215053189140   -6.54632643553542
H        -2.26397621935447   -2.12110269687745   -5.85485790854489
H        -2.58018558238045    0.49023677031523   -4.30067252736495
H        -3.70457513315222   -0.87088327449039   -4.28949675750474
H        -1.94954397141460   -2.32430619433985   -3.33021856215560
H        -2.21213041525906   -0.90390048274579   -2.29655659623059
H         1.29841616976638   -3.23126157245022   -0.77843613797054
H        -0.15886105974579   -3.98241997347655   -3.35282014589703
H         1.59472895625905   -3.77370161344218   -3.22541391730990
H         0.94989589737969   -6.16005707943166   -2.96916820980579
H         1.65971688895210   -5.54330880835563   -1.47390195998304
H        -0.37494097142460   -6.85839110021223   -0.98085394229439
H        -1.32172438501748   -5.82914070169077   -2.05674437906154
H        -1.64788407763200   -5.13153640618279    0.28811567253603
H         0.09399434489389   -4.92674022670303    0.49359906368855
H        -0.95991616457022   -2.73757744710957    0.07455227407114
H        -1.67425148311059   -3.35631762587167   -1.42709868817675
P        -0.54314671198347    1.26368546246744    1.83772222686375
Cl       -1.22409391254036    1.45604566998248   -1.27265166227164
C        -2.31293038590024    0.82900781393203    2.24275890483945
C         0.36519854517497    0.85672507121508    3.41312372603293
C        -0.48078886825150    3.08768791005104    1.49713230451915
C        -2.47480438150061   -0.65110610753717    1.86544670716054
C        -3.35429047399897    1.66644462780836    1.50171041238173
H        -2.47336807306671    0.94449280993737    3.32143119549918
C        -0.16772364699360    1.36213118993437    4.75183035183434
C         1.83917611995833    1.23920578259399    3.27021218279688
H         0.31705961057480   -0.24238265402094    3.43163144219718
C        -0.69118596648064    4.03708314417218    2.67048363133978
C         0.81475666507524    3.43828077556667    0.75919004779276
H        -1.29837777315551    3.23127735211610    0.77845277589770
C        -3.87929905947868   -1.14996515598462    2.18465588069898
H        -1.73051504522633   -1.25688724519325    2.39638484389985
H        -2.30169857451717   -0.75527866133195    0.77477569298672
C        -4.76083028519109    1.16106430354643    1.81927280265599
H        -3.27839979315873    2.71471880139464    1.79738492135304
H        -3.17886153850044    1.59991558694958    0.42558590433000
C         0.63762139020367    0.71366966475017    5.87905563939793
H        -1.22167703897094    1.11140868309194    4.88266253071340
H        -0.06847683343550    2.44495049655160    4.82436290531384
C         2.65238999442786    0.59544718775132    4.38824510275263
H         1.94957120408248    2.32431576126888    3.33016407732764
H         2.21216982547387    0.90386661298877    2.29656337077746
C        -0.79671202539107    5.46630122289356    2.13919529026658
H         0.15889282967272    3.98237829012080    3.35282144673970
H        -1.59469243444870    3.77360741256425    3.22540151911245
C         0.72297007628968    4.86575263654335    0.22822261428622
H         0.95994738006674    2.73765376181786   -0.07461696858751
H         1.67429792436990    3.35635711051401    1.42703393064013
C        -4.91013280688685   -0.30839238984217    1.43945826900911
H        -3.97292685000779   -2.20004755193339    1.89993177999129
H        -4.05707265847387   -1.07776169307871    3.26093651129085
H        -4.95817118920815    1.28032647596898    2.88838205972703
H        -5.49266409981810    1.76207603074600    1.27600018415612
C         2.12189944097398    1.04246650406600    5.74725605353239
H         0.50403632131009   -0.36985018480158    5.84047013373574
H         0.26360195432467    1.06362306429720    6.84420215272244
H         2.58021802698439   -0.49021355656982    4.30070010879027
H         3.70458787772974    0.87092570625984    4.28952321634088
C         0.46885919161014    5.84371855568820    1.37302628047117
H        -0.94993075041966    6.15999124345226    2.96922223492414
H        -1.65975249139908    5.54325158255815    1.47395029264892
H         1.64784356188973    5.13163504688982   -0.28814569615103
H        -0.09403468258006    4.92677304842015   -0.49359200504031
H        -4.75691236949563   -0.41869862234013    0.36361779570507
H        -5.91882801625200   -0.65477303910448    1.67373613591955
H         2.68161452271681    0.55222916431885    6.54634212661381
H         2.26392167547252    2.12115417617123    5.85482772245309
H         0.37487047302053    6.85839883460604    0.98091187350230
H         1.32168959978327    5.82913427111334    2.05675646098885

