77
CSD_code = LIJHOE | q = 0 | S = 0 | Stoichiometry = C33H39N2O2Rh | MND = 6
Rh        6.03499816736252    6.94675303007350   11.59517678427690
C         4.56682969681741    8.89017802217796    9.82383647511635
C         3.43930094521571    9.63857993381819   10.54790053814053
H         2.51555025388317    9.53661450722345    9.97964109641913
H         3.68841716226844   10.69211068719395   10.61951494505871
H         3.29837589482118    9.21461062648779   11.54061448225301
C         4.30297367019856    4.16038502373411    9.38897211043437
H         5.09461180257054    4.43854631935394    8.69678269886624
H         3.66117082576240    3.42284093507140    8.91184413671326
H         4.75340935270357    3.71283174095712   10.26952629141402
C         3.47820865359975    5.38537257583224    9.77230347077913
C         2.45130080386098    5.04574776632795   10.85575440527840
H         2.95235965005849    4.75438236203559   11.77399972946858
H         1.81522512868201    4.22851830782029   10.52383541681035
H         1.83292523609399    5.91511955566079   11.06982521971517
C         2.78172256512180    6.00900105698374    8.53264151434074
H         3.15682709352067    5.59604783722747    7.59095110580990
H         1.69426776332567    5.91472936395019    8.56137295295496
C         4.03491056550940    7.52530256294254    9.54648649306360
C         7.04252966579959    9.71419056408884    6.05311905874117
H         7.70838484567786    9.68088862197248    6.91250110478974
H         7.38997958770152   10.47385627930761    5.35641157294390
H         7.06689539486508    8.74314961341235    5.56660891935110
C         5.61555650143156   10.02553323767126    6.50177056765121
C         4.66821554819585   10.05180339880256    5.30285765761493
H         4.68042916734332    9.08305880430302    4.81121888852109
H         4.97911250175487   10.81665345521541    4.59485629150197
H         3.65142407573610   10.25797184670422    5.63023679040754
C         5.54381270986875   11.33881260321069    7.33760648139370
H         6.52496162737121   11.80376329888485    7.46761535238912
H         4.84724642744768   12.06910280384627    6.91655935283081
C         4.91634249574499    9.58502661500482    8.54415917156034
C         5.90041799534243    8.79904348268126   10.60089678091258
C         6.40320908272373   10.03513325495131   11.24618213477839
C         5.81403325848160   10.90167288986839   12.15829314011599
H         4.80776475155009   10.74621760047868   12.51502835901136
C         6.53665687212064   11.97577527615542   12.65006883745087
H         6.06805395547968   12.65149730691358   13.35205251963365
C         7.85301470068175   12.19539045594060   12.26809087814198
H         8.39381527608604   13.04170335817377   12.66697350478792
C         8.47529798521787   11.32426277977439   11.39374903833223
H         9.50731456541292   11.47356587790003   11.10931543595154
C         7.75620408375630   10.25240810006734   10.88861102346015
C         8.16852247941636    9.19793752127009    9.99106360489056
C         9.38344872875792    8.95882680609755    9.37038824661769
H        10.22705018072475    9.61231684045784    9.54284152186054
C         9.49740165308516    7.87452813227775    8.51729385897956
H        10.43849908099020    7.67227633919661    8.02573736245568
C         8.40278107763308    7.05628388590306    8.26935537902143
H         8.50496778771037    6.23321274476993    7.57548027554302
C         7.17919725755257    7.28356699600025    8.88041583114908
H         6.32791945613426    6.67658388913644    8.60672075364134
C         7.05603269044991    8.34913693179796    9.77488105151030
C         6.98114225371423    5.05080565394941   11.87569830776613
H         6.91356999394174    4.50699736894275   10.93109292392672
C         8.40341835989923    5.26147939726985   12.34213559028155
H         9.02530868350857    5.42212661883704   11.45783716316205
H         8.76423946669112    4.35119674487650   12.83501723555645
C         8.55449649892446    6.47305612665183   13.27762222718444
H         8.43406811153127    6.17647328563650   14.32024904772650
H         9.56471528579952    6.87255192114499   13.17128105992562
C         7.55700424428124    7.56285736086041   12.93987027457026
H         8.02318324650195    8.48401207553460   12.60115414044939
C         6.30151776457950    7.69058567947995   13.55423449700457
H         5.89762001000156    8.69906426730618   13.64802254314734
C         5.75671715771323    6.73508817488761   14.59274319090127
H         4.69388525920605    6.95088965480542   14.72816953356512
H         6.25079422321565    6.92739900624743   15.55172535358742
C         5.92000352063257    5.25718939359861   14.19654625050982
H         6.86233521522364    4.85987585732840   14.57412977703153
H         5.11868816583471    4.67670659788452   14.65968095592415
C         5.86306345804744    5.07496452050517   12.69543733509101
H         4.98049059371187    4.54201355906990   12.35175023972921
N         4.31914275990414    6.49124776245135   10.23954456309844
N         5.17734499524951    9.01499427601160    7.44860730654605
O         3.12201543722350    7.38825476142679    8.58547499578186
O         5.06325659455860   10.92974610829542    8.60883487234805

