77
CSD_code = LIJHIY | q = 0 | S = 0 | Stoichiometry = C33H39IrN2O2 | MND = 6
Ir        5.96396237488668    6.87399286902260   11.62950188248775
C         4.32583735128423    4.07380147692455    9.41041931410031
H         5.15661688590431    4.33153960191592    8.75741696549548
H         3.70006964947872    3.33833429173342    8.90937224643534
H         4.72085148368246    3.63215975566967   10.31987342008392
C         3.49813593991302    5.31297292278879    9.73437189222764
C         2.43494631492600    5.00522092588403   10.79217137428371
H         2.90414834735210    4.73580833149259   11.73324274420171
H         1.80745022185466    4.18163986947546   10.45961483523348
H         1.81258934225394    5.88116983466215   10.96306703395072
C         2.84199338967066    5.90738950160750    8.45954878254275
H         3.26413797220601    5.49056705405896    7.53943109864487
H         1.75657340599685    5.79289627383000    8.44395349109308
C         4.04262531983083    7.45371044811607    9.48664655626142
C         4.55567590671245    8.82249369492966    9.77380728179191
C         3.41903765998784    9.55308971777585   10.50217671726478
H         2.49858357624606    9.45362144114923    9.92788894706618
H         3.66226566653534   10.60699017171136   10.58696927086384
H         3.27485147411314    9.11945133819319   11.48950319513189
C         7.02379770550080    9.71659611850575    6.01410680407251
H         7.69034905525967    9.66897969331876    6.87228846717329
H         7.36824641277019   10.49080258070936    5.33210836805324
H         7.05116710596686    8.75521896961115    5.50887092047960
C         5.59618356677849   10.01435905771877    6.46965429739350
C         4.64724700022017   10.05726993544851    5.27241445735863
H         4.66140133587459    9.09680983468417    4.76477591306923
H         4.95539546258969   10.83447636740722    4.57677922886319
H         3.63021936894069   10.25565103580345    5.60406081178565
C         5.52018780289135   11.31328895661454    7.32722894484207
H         6.50039603303301   11.77748106964023    7.46689880785544
H         4.82333496866134   12.04949765596929    6.91712129558568
C         4.90002439806021    9.53776166199748    8.50465504400321
C         5.88466194015763    8.72303751840402   10.56075605753007
C         6.39133097543555    9.95005698658936   11.21681678098400
C         5.80197447625878   10.81460091809387   12.13161224319076
H         4.78783617229991   10.67110717573054   12.47002693703904
C         6.53274153316811   11.87138487571843   12.64632520998879
H         6.06360164120364   12.54709616812997   13.34800787402695
C         7.85902802768275   12.07489931906750   12.28815114445718
H         8.40637938635484   12.90748390871324   12.70650825662862
C         8.48070248437238   11.20590614070911   11.41233447419857
H         9.51917266636497   11.34230587470194   11.14540111762567
C         7.75236751848551   10.15218562748750   10.88179275678836
C         8.15617768685649    9.11294818470844    9.96568313340942
C         9.37179370255967    8.87768497381315    9.34312130798794
H        10.22244554717219    9.51458758136959    9.54083205379207
C         9.47511985186345    7.82291385439129    8.45433087259393
H        10.41504629064153    7.62381592635483    7.95923902393161
C         8.36855498188647    7.03026796715886    8.17354153315164
H         8.46056660105221    6.23077931000617    7.45130123251122
C         7.15033996269092    7.25213273881209    8.79193204708802
H         6.29853857064341    6.65050691478027    8.51371371939691
C         7.03632014295640    8.28223878831667    9.72418588945222
C         5.74013086165997    5.04368535227000   12.77625034847687
H         4.85515731553668    4.49689593003267   12.46498937354891
C         5.83676638712822    5.23547561871522   14.27758194839875
H         5.01027114835837    4.71109838254952   14.76095012808609
H         6.75982003939283    4.78126583586970   14.63845706077824
C         5.78089288556943    6.72436888046414   14.66784257895512
H         4.74595676902106    6.99889861007871   14.87912244312900
H         6.35550734030096    6.89878356946284   15.58315110620024
C         6.29374606549843    7.63793830048423   13.57213296821554
H         5.94771145216851    8.66485761427256   13.68401860288912
C         7.54087288772072    7.45728950369564   12.92617574689079
H         8.03544275213575    8.36012226805955   12.58173732282192
C         8.50757617746727    6.34733977983032   13.29354353950385
H         8.39481219353432    6.09898445948689   14.34932164918482
H         9.52885558440008    6.70352591908207   13.15262293758936
C         8.29034158060711    5.10352658296589   12.41538637376086
H         8.92608056636548    5.18171887335244   11.53161661160282
H         8.58927682028563    4.19722483559038   12.95370454022276
C         6.86022793658575    4.96482642420074   11.94359890213704
H         6.77361479281911    4.37630025817686   11.03149304060265
N         4.32722121595181    6.42965531423696   10.19911577991603
N         5.16345097530339    8.98658123769928    7.39998834912863
O         3.15482971882233    7.29339742981778    8.50939102138960
O         5.03813387396395   10.88225580812572    8.59015355101915

