56
CSD_code = LIJHUH | q = 0 | S = 0 | Stoichiometry = C24H19F10NOPd | MND = 4
Pd       -0.01437472727529    3.40666308553103    3.98799877628657
C         0.65885147227633    2.00803522839098    2.73454732431608
C         1.47453641955072    2.30864179512566    1.65294679165504
C         1.91903494432989    1.35154319124892    0.74851232048943
C         1.53847966540930    0.02443900947510    0.91900545935467
C         0.71656035436635   -0.32053531408252    1.98694014093965
C         0.30200491291312    0.67306849544394    2.86341183229080
F         1.82203998198373    3.59687742170903    1.46311379388593
F         2.69454048300799    1.69411494718200   -0.28941726493716
F         1.94743516776724   -0.91194092578598    0.05337651134856
F        -0.51412959791846    0.34575411002403    3.89560229339414
F         0.32600531520272   -1.59291707688693    2.14982364239829
C         1.12551067445178    2.52383471327308    5.30757351083992
C         2.50869928669303    2.51403958369489    5.33051944100432
C         3.23193699933535    1.84041405308544    6.30733213961809
C         2.54863663250741    1.13196830441235    7.29202737388399
C         1.15626182371014    1.09655576348768    7.28510819439940
C         0.48390902370632    1.78633929604534    6.28917377878014
F         3.15299849666502    3.17901505073120    4.35021495825324
F         4.57170169283614    1.86229486479089    6.31497363245419
F         3.22956311428090    0.48340572278026    8.24590663344332
F         0.49663991476452    0.41588378558016    8.23284609729331
F        -0.87796556560826    1.78569305589428    6.24283687356445
O        -1.37504217341835    4.05898279200275    2.38947931871105
C        -2.32861697474070    3.36574563038452    2.08026190447661
C        -3.05391533309433    3.58437089859500    0.78577004096544
C        -2.84400917193918    2.26772265000836    2.96052013510684
N        -0.82732767118685    4.91266738756544    5.42738011125217
C        -0.31897994058888    4.87285056444342    6.80081008857799
C        -2.28090193720934    4.73887488128414    5.47929691075869
C        -0.51338149913578    6.23590193090661    4.84848290741345
C         0.97290778377935    6.39250510425379    4.66205932518274
C         1.57567610993902    5.83316871328404    3.53774376805153
C         2.94771988710294    5.92683382649019    3.36460586849580
C         3.72375417264417    6.57419103014574    4.31110977511880
C         3.12643142264038    7.14843222643605    5.42034656938586
C         1.75630289689216    7.05901856928153    5.59601174285811
H        -2.87272107120320    2.73292509844927    0.13152722709166
H        -2.69627067290008    4.48542483140720    0.29399055623883
H        -4.12656340593331    3.65000385964041    0.95121600106767
H        -2.87869168412795    1.33023734449500    2.40822016915167
H        -3.86085614511093    2.49308996086554    3.27970031278986
H        -2.19801580024873    2.14930624928552    3.84392338194043
H        -0.62879209073110    3.95332696339125    7.29155931405345
H        -0.71618811984592    5.71725095575871    7.38079840781436
H         0.76908979155055    4.92476937854198    6.80146181699803
H        -2.74157923870093    5.49030756476384    6.13632811382767
H        -2.71167706268820    4.85321317692314    4.48352715523090
H        -2.51816850477001    3.74674184930290    5.86740970603515
H        -0.90637877182397    7.02942713292234    5.50407428771153
H        -1.01113687780740    6.30956286090446    3.87470044872122
H         0.95944277098014    5.38775195707936    2.75666806623160
H         3.40511516861423    5.49125428321857    2.49089493016353
H         4.79317538981449    6.63976907595582    4.18087223409236
H         3.72708743261706    7.66685371884421    6.15315110965874
H         1.29543483563019    7.51542937198739    6.46142403987164

