47
CSD_code = LIJHUK | q = 0 | S = 0 | Stoichiometry = C17H23Br2N2O2Rh | MND = 8
Rh       10.49297737657523    6.33853533706940   18.09425180261355
Br       10.44724526374310    6.80201539851387   20.46351106995885
Br        9.19090430973637    4.33631999074038   18.49379253296182
O         7.81822011380214    8.58792472062773   15.87709665812714
O         9.87911249836768    5.70580519712510   13.57353730335382
N         8.80032035200890    7.52028688353754   17.55618586307169
N         8.13316988106992    5.76174392474210   14.98098978715909
C         8.82545210968450    7.85554708961340   16.31980492264710
C         6.87409798749236    8.68749390043517   16.94685509293384
H         5.98424452247860    8.11873917557321   16.66446299794634
H         6.61558879597947    9.73910297799618   17.08101034372588
C         7.59354736102152    8.07871308154707   18.17910012371475
C         6.78594591472815    6.97049068339126   18.84204531485662
H         7.34707704690729    6.55288656300410   19.67412446836016
H         6.58178999695417    6.17283899332089   18.13164519927733
H         5.84883221358788    7.37244280856317   19.21776774313900
C         7.98038012514631    9.16109597675215   19.18659078916980
H         7.08060531732923    9.61030384138557   19.59825916198261
H         8.57675198125349    9.93595781960935   18.70788056848377
H         8.55687370305667    8.73003529369563   19.99960160520162
C         9.88316178267235    7.41377800632543   15.33373627428382
C        11.06805652408648    6.90271383450859   16.12478189577147
C        11.85560475303065    7.70504696460050   17.02663171069535
H        11.87144243287126    8.78337805846582   17.06562138965877
C        12.70792602027655    6.83880068901496   17.73709824083958
H        13.45346280318278    7.13311917356668   18.45942911166335
C        12.42904526840976    5.50532478861220   17.33048106970507
H        12.97811632919217    4.62674568031819   17.63449143557851
C        11.46535038463427    5.55749392082013   16.27605153339942
H        11.13352827508561    4.71581112993662   15.68973018181681
C        10.25627305189477    8.52025053793870   14.34550726381661
H         9.35966617269433    8.89627165793067   13.85843125546775
H        10.93052280510427    8.11689696990115   13.59356863922778
H        10.74728023445373    9.34272591739548   14.86084875231172
C         9.23264658663926    6.25798177912797   14.62284364986396
C         7.83863666227978    4.63266429850986   14.11625304392943
C         9.05792800760271    4.62226273899096   13.14233345782103
H         9.63647966306316    3.69745455201214   13.20633029723160
H         8.76811036650494    4.79850944935402   12.10362493359523
C         7.75739951775978    3.36362411745004   14.96124742611984
H         8.68490333768336    3.19833906553825   15.50355273262308
H         7.55305089179574    2.50494714770736   14.32697062238187
H         6.96524928053515    3.46550857977462   15.69671399430482
C         6.52074594283030    4.88028135680705   13.38575933672631
H         5.71783568830926    4.97287598940524   14.11143424898340
H         6.30403126754027    4.04936978124706   12.71934447920062
H         6.57190907895457    5.80004415749651   12.80626967429853

