105
CSD_code = LIJJEV | q = 0 | S = 0 | Stoichiometry = C40H59FeN5 | MND = 4
Fe       -3.04924317527211    9.96289565635839    4.78569001219990
N        -3.24009774640183   11.99560146426302    5.25589923572212
N        -1.98940641525300   11.32316396936919    3.61830984084580
N        -1.48031374867085    8.83367175415015    6.07208113765868
N        -3.26498675790181    7.43745130091929    6.04512809802288
N        -3.78254876866760    8.40517714299119    5.16334105443108
C        -2.69417385073091   12.32753189824088    4.10475486926473
C        -2.87098579275907   13.64434908732749    3.42249214823164
C        -3.85653105666965   13.79191547984602    2.44557550558879
C        -4.00281053997234   15.01676052426765    1.80921932898827
H        -4.76646790056590   15.12635272732672    1.05101600538234
C        -3.19190208516341   16.09655625562417    2.12323842964056
C        -2.21984091426404   15.93246687721405    3.09909192211779
H        -1.57963361023268   16.76503410913127    3.35759215597041
C        -2.04758646118042   14.72128076105680    3.75324587767859
C        -0.99665299481417   14.59361788402278    4.81698472788813
H        -1.30601743234410   15.13626879983448    5.71105708235558
H        -0.05457026621386   15.02229893065705    4.47757285037293
H        -0.84131977792554   13.55217675428931    5.08578778846779
C        -3.37682977992110   17.41989335163711    1.44231919484610
H        -3.80165142753819   17.28992266897520    0.44952903291335
H        -2.42896219218238   17.94647099775096    1.35508062198946
H        -4.05709009969924   18.04567039564725    2.02158646127921
C        -4.76126172786187   12.65358718289593    2.06843235397801
H        -5.80102909018343   12.92252893223824    2.25650654900825
H        -4.52031213944198   11.75494313750157    2.63383214109106
H        -4.66492255490107   12.43140730332277    1.00568267771039
C        -4.10887012609665   12.86827057339532    6.00034458728317
H        -4.09947452962387   13.88513731875526    5.57475064383834
C        -3.62015026852167   12.92066868912632    7.45038425500774
H        -4.27515459502737   13.53967494713591    8.05924568039177
H        -2.61226487894247   13.32538272993849    7.48998611825400
H        -3.60066711615217   11.91077845920695    7.85352297804638
C        -5.53823268614284   12.31594872041223    5.94611452722901
H        -5.52013362579056   11.27071001024751    6.25472124275335
H        -5.92534852074185   12.37481177884249    4.93166595321799
H        -6.19811984296621   12.87488389222972    6.60545381420263
C        -1.43328747193247   11.32369846160242    2.28910196232821
H        -1.94584448511939   12.05893483336881    1.64643767006412
C        -1.64674589566697    9.92162160579942    1.71282911166874
H        -1.18062561667029    9.18906819134962    2.36961567203249
H        -1.21922385789482    9.83573718441056    0.71686415351779
H        -2.71201943487298    9.69850980902966    1.66364741777826
C         0.05605229765999   11.68606994118529    2.32389639982937
H         0.18213659925792   12.69904170370895    2.69834261246169
H         0.48372461546866   11.62684274843643    1.32541589489549
H         0.59113171181411   11.00552827653022    2.98068648887492
C        -2.03727283271534    7.77428536406421    6.54471280629555
C        -1.42703829825952    6.86243200737131    7.55292078697828
C        -1.34801109300606    7.24987358084821    8.89281837568364
C        -0.73903071152815    6.40077483169228    9.80599333238198
H        -0.68051517199521    6.70281391291025   10.84239957158547
C        -0.20254305186646    5.18244862189881    9.41827853232548
C        -0.28663312648280    4.81717316917758    8.08233846959828
H         0.13026850706820    3.87217678389918    7.76300361341912
C        -0.88958434767150    5.64006055322521    7.14320406263337
C        -0.97084203741182    5.20059761469036    5.71115529220031
H        -0.08412262583791    4.63336118501069    5.43456724610565
H        -1.07170274389388    6.05335086570175    5.04424882042987
H        -1.83746757796839    4.55292477770518    5.57150009388370
C         0.43496793472792    4.27076234988097   10.42241644104504
H         0.85533208289794    4.83784910692533   11.24962302946210
H         1.22261024073146    3.67797484393371    9.96307057528678
H        -0.30985656857012    3.58473810409528   10.82767911143278
C        -1.92631481419455    8.55021098340823    9.37000240177574
H        -2.80276487292478    8.36149017021912    9.99103894149853
H        -2.21712376423800    9.18326933236368    8.53580282805788
H        -1.19882316904885    9.08513514782537    9.97850883208139
C        -0.12605159950706    9.20565466046320    6.40007582477057
H         0.22202816736454    8.71667979242514    7.32382648110005
C         0.78360953303285    8.77997795525470    5.24585070021898
H         0.82179948258252    7.69547187286101    5.16929786956418
H         1.79312973963421    9.15387849966826    5.39780611423202
H         0.38313447495263    9.18530351259317    4.32032097315380
C        -0.10513589072081   10.72208555294026    6.56535909809221
H        -0.58366491565782   11.15895642403227    5.69164024344400
H         0.91372266073145   11.08883197640865    6.66009987651260
H        -0.67122959837222   11.01492242074728    7.44512291201683
C        -4.24142202296639    6.76409931091808    6.90654003491105
H        -3.66432809953847    6.28120321504272    7.70270172195197
C        -5.19484830543814    7.78872943171234    7.52701669873848
H        -4.63234882498879    8.59569984462012    7.99019393768923
H        -5.81635834955164    7.31145455206637    8.28029898756609
H        -5.83686647197263    8.21416904088321    6.75922298779135
C        -5.02563438045411    5.68790341400398    6.15897052539283
H        -5.62595038871102    6.12459970823419    5.36523113966217
H        -5.68774961679733    5.17883067198622    6.85546635735524
H        -4.35440987559027    4.95244263620705    5.72403808891112
C        -4.36751512714955    7.98194924275029    3.99186506578585
C        -4.03626393441303    6.79472966340276    3.32183730650418
H        -3.32592022241971    6.11836227682613    3.77418914711075
C        -4.59240506488255    6.49935112654807    2.09194801737849
C        -5.48250988933149    7.39523939142086    1.50849674814256
H        -5.91638001964218    7.16259499764313    0.54656698180787
C        -5.82669520310773    8.58208271764912    2.14614243341655
C        -5.28326904500565    8.86257808813308    3.38635122167681
H        -5.56415046129056    9.75990181529549    3.92661283205150
C        -6.78378343498186    9.53443094122064    1.49171203680034
H        -6.31056476680537   10.01032192163870    0.63310265801942
H        -7.09537376796136   10.31093489135601    2.18536920539466
H        -7.66650433505286    9.00669646405111    1.13437924264829
C        -4.24760015839506    5.22222107411188    1.38354745792840
H        -5.10881712085274    4.55378372080965    1.37219649133978
H        -3.42347159435833    4.71266501224688    1.87678237531237
H        -3.96796749409693    5.42154363418497    0.35046275406888

