37
CSD_code = LIJQUS | q = 0 | S = 0 | Stoichiometry = C10H20Cl4MoO2 | MND = 6
C       -23.93385470519439   -2.64040135457810    3.30356734308778
H       -24.08697656682816   -3.30658388158820    4.16703540245740
H       -24.40188180759296   -1.67236100305576    3.50250388129873
C       -22.43853598346031   -2.47210735336040    3.03800417969471
H       -21.96068051136696   -2.06919879691076    3.93150861482964
H       -22.30314801363084   -1.76021456165922    2.22086209640741
C       -21.82879510533737   -3.81575746539164    2.64715625222235
H       -20.77982617892756   -3.68967845179427    2.37892816801046
H       -21.88138807024044   -4.50675502364579    3.49282985104772
C       -22.61563317916761   -4.38275698777502    1.46915507179847
H       -22.51623457206534   -3.72676779165413    0.60125899375018
H       -22.25520226477425   -5.37404850497691    1.19610433298360
C       -24.09095334211921   -4.46710254177216    1.84122813541342
H       -24.68636055826417   -4.82468224971898    0.99763271702320
H       -24.23080470512036   -5.14140470691778    2.69965862454871
Cl      -24.05777567909925   -0.42972087349435    0.80801597839239
Cl      -26.80406318282871   -0.62084263309098   -1.16710438148149
Mo      -25.66609745649308   -1.85665634885549    0.50816641658117
O       -24.61872974923873   -3.19073146733984    2.18829440786676
C       -27.39765433235377   -1.07272058678534    3.30361023180399
H       -27.24453946434073   -0.40653586380711    4.16707764268868
H       -26.92961137109983   -2.04075444183175    3.50253331066694
C       -28.89296369747446   -1.24105063689455    3.03804005230963
H       -29.37080277658420   -1.64394205276597    3.93156014322446
H       -29.02832144361385   -1.95297929376587    2.22092902056972
C       -29.50272946836440    0.10258132809742    2.64715768994025
H       -30.55169084148841   -0.02351959939482    2.37890884093953
H       -29.45015886067083    0.79361055350116    3.49280788250312
C       -28.71590129532265    0.66957850626242    1.46915193305416
H       -28.81528691617613    0.01356339361284    0.60127433312588
H       -29.07636577199879    1.66085499796881    1.19608030894898
C       -27.24058250897606    0.75396387357495    1.84122679315901
H       -26.64518555366702    1.11152009508543    0.99761374828167
H       -27.10073654249359    1.42830554675208    2.69962590389518
Cl      -27.27354654556872   -3.28424997072204    0.80877706089881
Cl      -24.52700187261147   -3.09147959675956   -1.16673202342566
O       -26.71277910543894   -0.52237425454576    2.18835104148382

