93
CSD_code = LIJQED | q = 0 | S = 0 | Stoichiometry = C36H50MoN2O4 | MND = 6
O        11.33344886755761   12.87844594280756    7.51768379363700
O        10.92307244604286    9.83672506816654    5.73239526837464
O        12.05169520946372   10.37142716818211    8.11323422607316
N         9.93373918938619   12.42020307121417    5.36257886006531
C        11.61216809345510   14.10935536737157    7.09785310946942
C        11.16513925239171    9.81195071063677    4.42067076760879
C        11.62058460902631    9.98159046418730    1.64644644885071
C         9.40994216458177   11.55737218370310    4.29490487718839
H         8.87471738481145   12.16860696665286    3.54714885504437
H         8.68665486842244   10.86867302368452    4.75607346690873
C         7.13904358933539   11.80059870602811    7.71803454082022
H         6.38193356124296   12.49258122914314    7.38155584251363
C        11.50895549107811   15.80129579453475    5.37040016061956
H        11.23389644996422   16.05572378961959    4.35880186711305
C        12.44408094367323   16.32805420434849    7.48605413541842
H        12.91281822868591   17.04628920410203    8.13584924794937
C        12.25948593512644    9.03526927563843    2.44515505201970
H        12.95516750556981    8.36776715919920    1.96726242450270
C        12.67405829383483   14.60825828480080    9.35038913096084
C        12.22583532236467   15.04721615044192    7.96028921273648
C        10.47138745967552   10.73134294072193    3.62087428641619
C        10.70310171835282   10.81904211597012    2.25769666008493
H        10.14820597996504   11.55125352238415    1.69169629720479
C        12.09160333255086   16.73973857878497    6.20224153574486
C        12.37451977022606   18.17196623520344    5.77307496022545
C        12.05805952012036    8.90643032748144    3.81068389820560
C        11.94084781733753   10.04179290228952    0.15990415363762
C        11.26951591089019   14.49939677686043    5.79412597800535
C         8.42665573937135   11.86646228019194    7.19455723367623
C         6.85334518929711   10.83899919634335    8.67213004415039
H         5.86234694160246   10.76631747838494    9.09497703658488
C        10.68839065250360   13.53419702628798    4.78537776353013
H        10.04047833566119   14.09822768415723    4.08867618932872
H        11.50975537149056   13.09502919690703    4.20457597857407
C         7.86114702439803    9.97329711427433    9.07034977697348
H         7.67954191568839    9.21042487973595    9.80996890102341
C         9.11595564825397   10.10844254053510    8.49812760447186
H         9.95290528695823    9.47791192696918    8.77129972140570
C        11.63781496864010   19.13848379386483    6.71109330474670
H        11.97025167945018   19.02334205025896    7.73858143870445
H        10.56648141400214   18.95188381907038    6.67670290295900
H        11.81914426952418   20.16766552635666    6.40804770479247
C        12.77294762664907    7.83714654466541    4.63031514430946
C        13.79044951346253    8.50915656361109    5.56283154676083
H        13.29228278338389    9.13716079671772    6.30726771063545
H        14.46709382443864    9.13923499072271    4.98883057428383
H        14.37360909824791    7.75151349038053    6.08338942590366
C        13.44186010543432   10.30602658146147   -0.02116868417889
H        14.03868505862411    9.50301705612110    0.40063417761996
H        13.72123201443394   11.23238007583991    0.47517699093874
H        13.68428757630269   10.39138050622619   -1.07873341449934
C        11.74720352654598    7.05369675809943    5.46203193773069
H        11.00159258935817    6.59680707537360    4.81268290799697
H        11.24626099050992    7.71364197240267    6.16750660414565
H        12.24803979839552    6.26765571255656    6.02354036713005
C        11.17343791669212   11.15434016913186   -0.56006273634020
H        11.41328239026943   12.12762639048529   -0.13882440354557
H        10.09970173283426   10.99235209870753   -0.49934558806058
H        11.45149755551342   11.16504972509210   -1.61215713854266
C        11.91547404112172   18.45824831453052    4.34063577070727
H        10.84362172012727   18.30667955683159    4.23564992310739
H        12.43771955446528   17.82269144457377    3.62988930637118
H        12.13460094502085   19.49417274309929    4.08946356159335
C        11.56591463015800    8.70366722291910   -0.49225207542161
H        10.50670114487526    8.50006643806693   -0.34951560189427
H        12.13090704143201    7.88263293340592   -0.06063975994034
H        11.77150371035478    8.73534772024291   -1.56036396500072
C        13.28332108391958   15.75779537738146   10.16249989066942
H        12.56545120720778   16.56251350069164   10.30792263953686
H        14.17413464327026   16.15251420600738    9.68017948725814
H        13.57417888051943   15.38640245539787   11.14298193487514
C        11.47876164417738   14.05947540931468   10.14415599210981
H        11.09838552190400   13.14910943554970    9.68426426943198
H        10.67991876681993   14.79917564141291   10.18658075411770
H        11.78667780102541   13.82400043983844   11.16085451446440
C        13.52507304882011    6.82977849835783    3.75051504164477
H        14.34571664376740    7.30434167428368    3.21832188015746
H        12.85690309086361    6.35530753450670    3.03466763392813
H        13.94822463630662    6.05189767531824    4.38274754542256
C        13.88632614399796   18.42609927211777    5.84833507092783
H        14.41550839356195   17.72061005975596    5.21180502586906
H        14.25609304163548   18.31095468428261    6.86300474521744
H        14.11581442600986   19.43592250440667    5.51377643091110
C         8.82152570719180   12.90157522107026    6.17670736668631
H         9.13908197592209   13.80379620609705    6.71612958385387
H         7.95450372641972   13.17567654044353    5.55169111300830
Mo       11.61121847777246   11.22742962071392    6.76777460504936
N         9.38499799808000   11.03233861520312    7.58606385642053
C        13.74556878303273   13.51766362325052    9.19499322151952
H        14.59158073164394   13.90543128704961    8.63056284997005
H        13.35454115100855   12.64058904258343    8.67002123995116
H        14.09653620081026   13.20111089833580   10.17526084765885
O        12.85295603365884   11.65584601787778    5.77425521915919

