63
CSD_code = LIJTIK | q = 0 | S = 0 | Stoichiometry = C28H29I2NP2Pd | MND = 4
Pd        0.86985355271507    4.18000615523917    9.83421242398780
I         0.43329825660265    5.28687875696847   12.11803318892026
I        -1.48219759171262    4.34487027188072    8.78668703983098
P         2.98469049850174    3.69457841899041   10.31877738088069
C         3.34167383201029    2.46221669222205   11.59070048999180
C         3.31392800860047    1.09467756411564   11.34131099543899
C         3.42937073662414    0.19776012006105   12.38634242542463
C         3.54468636965163    0.66000696752476   13.68761674613980
C         3.53178003663285    2.02178930450218   13.94559855230125
C         3.42309419782554    2.92413671684510   12.90484262666941
C         4.07918639880689    5.10965874792016   10.65832439403202
C         5.27793511127519    5.04031977730243   11.36103012332483
C         6.00622511386655    6.19442942906677   11.58646215568338
C         5.54342111200948    7.41745350750705   11.12774932311091
C         4.33554036170232    7.49580498700261   10.45345125515468
C         3.60477714828870    6.34582584943938   10.22712300892969
P         1.73727318515902    3.26939534786932    8.00165702147938
C         1.84619543963958    4.48675162366684    6.64720439244927
C         1.56452879073311    5.80463498387657    7.00086331018040
C         1.60583276982911    6.81134457050809    6.05528712409366
C         1.91959464251470    6.50458217367217    4.74137917129322
C         2.17182469053219    5.19176243976023    4.37553545492172
C         2.13103187660999    4.18174494135558    5.31927974028309
C         1.14329191485696    1.73705664130495    7.25320469449778
C         0.13474631477879    1.84609873586895    6.29623923681929
C        -0.47644160257736    0.70638294008309    5.80893179820197
C        -0.10046840235865   -0.54127683171986    6.28015417058475
C         0.87484979239545   -0.64975696412053    7.25881755914893
C         1.48419079968399    0.48600721608394    7.75615554203967
N         3.28694053307698    3.03831140831939    8.74344600801761
C         4.59044903029742    2.82549251745016    8.09051058123604
C         5.58045024968598    2.25602441609327    9.10506388798531
C         4.43006573279129    1.83436794977778    6.93932561660948
C         5.12326959113798    4.15795739219978    7.55118561592222
H         3.19594169661497    0.73693433530223   10.32821259021343
H         3.41530624244682   -0.86387267068940   12.18692730243790
H         3.62618277184679   -0.04307257849613   14.50276393028715
H         3.59291806489911    2.38303497832752   14.96089645188277
H         3.38163472189697    3.98645153924113   13.10705955336582
H         5.63373353890001    4.09623288525623   11.75126415435228
H         6.93584599041776    6.13848800431901   12.13299250144881
H         6.11635102742954    8.31313699363516   11.31368587095677
H         3.95743103714317    8.45058323682284   10.12153898536448
H         2.63252026801021    6.40109302309543    9.73621231778453
H         1.26634486744879    6.03602914764645    8.02983993188169
H         1.37746015067915    7.82751254963272    6.33844762286054
H         1.94880650183436    7.28562188595055    3.99694752881155
H         2.39260830855281    4.94983373412532    3.34651440150513
H         2.30010012059627    3.15812619000993    5.01410403428017
H        -0.17994143703301    2.82175694769565    5.95107167565338
H        -1.25743241076144    0.79489158451161    5.06928838017049
H        -0.58104470153530   -1.42967781192731    5.89917023961823
H         1.14986341464486   -1.62020611142691    7.64539424493980
H         2.22211938396419    0.40716706578654    8.54173179574779
H         5.36617287485253    1.75726953108890    6.39180537132456
H         3.65656973963251    2.16782236844161    6.25301364256125
H         4.16495378334872    0.84636726467742    7.30676537442062
H         5.66500778640058    2.91413103944153    9.96530554421189
H         5.27083286329060    1.27151047533275    9.44633941886251
H         6.56136392086705    2.16646814752471    8.64428400815666
H         6.08460735634129    4.00864285366196    7.06577618210584
H         4.43142206626374    4.58057802778860    6.82545647801046
H         5.25313155882151    4.87215059459483    8.36188741119460

