66
CSD_code = LIJZOU | q = 0 | S = 0 | Stoichiometry = C32H27AgN3O2P | MND = 5
Ag       14.59082747494275   -0.20183009556067   15.42556007946622
N        14.20474944542353    1.29016969437945   13.56480589638943
C        13.70078399356244    2.49362701049709   13.88204518506833
C        13.22543940402267    3.38864013237214   12.89629109006328
C        13.28991138192688    2.97089511902968   11.55623314300470
C        13.79211025743423    1.73048693297070   11.26276295951685
C        14.24734430873403    0.90508377694848   12.30626916508657
C        14.78344840630501   -0.45364465640841   12.00858371666945
C        12.68808258032685    4.64856328374391   13.27381847491641
N        14.06946134805300    2.02420761615445   16.20011965962446
C        13.61798400697586    2.87317581623124   15.26412183753297
C        13.04379040403306    4.11978264129876   15.59996016215976
C        12.93498880957753    4.43617718332844   16.96459729580798
C        13.37893457595766    3.53906682384261   17.89948436537567
C        13.95372206297774    2.32817842076006   17.47559365300524
C        14.44249453004714    1.33378964805083   18.47317840387968
C        12.59555015747608    4.99880645498653   14.57806506441315
P        12.11987098186341   -0.66897428148947   15.57431209623370
C        11.06929592169509    0.80433127091263   15.51255235396936
C        10.80489979489053    1.40741099221113   14.28407985550042
C        10.14535344437184    2.61960282233727   14.22879030282649
C         9.76723990269044    3.25929239778996   15.39847710673917
C        10.05278109495924    2.68063052044530   16.62454042933062
C        10.70469864388583    1.46384307869733   16.68379555180758
C        11.42782811154200   -1.74391810693694   14.27359956847711
C        12.30283840067750   -2.67960995780489   13.72804895133736
C        11.86287315552146   -3.56259248517145   12.75915773911232
C        10.54776432575908   -3.51319115383921   12.32542468461429
C         9.67532290843395   -2.58015795977892   12.86257381578591
C        10.10823395830852   -1.69816962074324   13.83625664445269
C        11.51319322460619   -1.53498064528299   17.06335362971046
C        12.46344671738989   -2.05189538398199   17.93719812130937
C        12.06349328964503   -2.73738827667057   19.07108252979952
C        10.71490035673546   -2.90827440741816   19.33562037579492
C         9.76505545605635   -2.39491074619889   18.46532293164694
C        10.15874820220460   -1.71251305993875   17.32972763670467
N        16.42813509929335   -2.25946507168966   16.05386342612323
O        16.05002793621502   -1.42520124771741   16.90048034360080
O        15.98055950939001   -2.09565331731336   14.90140295040014
H        12.93809104172036    3.63150075747216   10.77608772273144
H        13.84736542612904    1.37681368996950   10.24439819977292
H        13.97268229512246   -1.10734297108411   11.68580670516931
H        15.51896165447135   -0.40829316618491   11.20768830441900
H        15.24375722923391   -0.88107358499757   12.90213295448858
H        12.34315893868893    5.31115865436280   12.49279423182067
H        12.50099730025378    5.38196164317667   17.25712767832676
H        13.30240478755360    3.74923901243825   18.95554758833725
H        15.03543725095938    0.56328874325305   17.97567287587092
H        13.59404446126284    0.85751298987505   18.96545567955924
H        15.04551415296608    1.81946344981874   19.23764197525144
H        12.17258119148171    5.94887723192889   14.87139735456050
H        11.11585198608076    0.91346325199641   13.37240982863765
H         9.93251289471922    3.07320993941973   13.27137816372710
H         9.25616424934160    4.20955916838765   15.35371567130973
H         9.76705036845991    3.18170758628820   17.53827791818230
H        10.93247263606834    1.01429860343180   17.64115641702311
H        13.33339856233595   -2.69987552274968   14.06801435666596
H        12.54599733878651   -4.28625464390000   12.33969413930127
H        10.20171210586415   -4.19914047914430   11.56622371460577
H         8.65053821883874   -2.54040380336688   12.52189855223986
H         9.42343500471989   -0.96715499386920   14.24345094811455
H        13.51731903912712   -1.91130144776119   17.71976303192718
H        12.80470548135678   -3.13709878727517   19.74683173719420
H        10.40030885094508   -3.44197800322770   20.22048236867554
H         8.71341754147078   -2.53104003594340   18.67240664167096
H         9.41753640758728   -1.31148844464637   16.65309404270141

