57
CSD_code = LIKJIB | q = 0 | S = 0 | Stoichiometry = C32H20FeO4 | MND = 8
Fe       -0.73464159699462    3.89242430154071    7.26109081647865
O        -0.52601312398873    0.40236951330588    6.56483316498048
C        -0.30490029690003    1.37255772087619    7.25873778446415
O         0.62802563194886    6.36849030768672    6.55838452594991
C         0.88005199980482    2.28429994307903    7.26902068634967
C         0.89249128156154    2.98264782022352    8.51765307591843
O        -1.66868931795791    3.20100279440341    4.55745425874104
O        -3.00061307956584    5.57403173284135    7.96622792225743
C        -0.37643196297307    2.78834560662787    9.16075711764655
C        -1.19014797849104    1.98671337500288    8.29383101759973
C         2.03322528790637    2.14471527559912    6.37548249312458
C         2.84673508129459    3.24314178871176    6.09020243322955
H         2.59665588463535    4.21098221344786    6.50289543262473
C         3.95077337472728    3.10461054109543    5.27409984026798
H         4.57206537109805    3.96256387671025    5.06282879273259
C         4.25732777116742    1.87085035063476    4.72065440922628
H         5.12053592839755    1.76458772305528    4.08045726003719
C         3.44569252069445    0.78047060806495    4.98225831022722
H         3.67377578531394   -0.18031819868545    4.54478702240397
C         2.33917824795541    0.91133111556095    5.80161181722696
H         1.70562177203674    0.06152839109066    5.99967077409741
C         2.05327618322097    3.63343752715622    9.14178939833575
C         3.28017021406606    2.97449776828548    9.18463209049178
H         3.37550821680018    1.99365910965160    8.74265141011252
C         4.36625250317317    3.56736935425677    9.80172176564326
H         5.31284927914363    3.04851293365263    9.82901611428355
C         4.24273895016726    4.81857174377585   10.38183240697547
H         5.09385056656286    5.28042877042683   10.85922539268391
C         3.02392401253342    5.47707646681968   10.34719086049656
H         2.92260668391350    6.45332614407817   10.79728194942669
C         1.93520440818773    4.88966517885266    9.73284192404093
H         0.98455772148918    5.40466572141220    9.69264132180474
C        -0.70051836010680    3.12278069603540   10.55354701382257
C         0.23218485655035    2.88407940676466   11.56137895203385
H         1.19892170264253    2.47261769281860   11.31183153785870
C        -0.08260174132286    3.15133312983562   12.88099402638521
H         0.64937461397817    2.96179260455767   13.65206720879538
C        -1.32856739865607    3.65444113762359   13.21397087792093
H        -1.57055213334481    3.86419834204072   14.24503299393492
C        -2.26533479111285    3.88395879241169   12.21901096735993
H        -3.24055830236986    4.27198090586764   12.47228575085936
C        -1.95579453940880    3.61950036246045   10.89931681485731
H        -2.68400491802671    3.80377352679773   10.12290688800007
C        -2.46580478152893    1.35456076839766    8.66627672489359
C        -3.55197137861794    1.39858014429400    7.79820457244200
H        -3.45651399170710    1.93823364080149    6.86533363259919
C        -4.73883316080239    0.77241312198758    8.12827541364520
H        -5.57562005166231    0.81407839724539    7.44661140327075
C        -4.85566433309072    0.09541134067762    9.33089903858730
H        -5.78396630413832   -0.39127337324306    9.59076160276928
C        -3.77658214004748    0.04056721338329   10.19690709539793
H        -3.85951261944398   -0.49288866416436   11.13261526783549
C        -2.58617847331215    0.66198989691204    9.86884985348470
H        -1.74180387842536    0.60282916987802   10.54039304078948
C         0.13110702729204    5.37993880124756    6.85179008572333
C        -1.30535463603711    3.41763529454006    5.61570897544373
C        -2.10900758823062    4.89021013158770    7.74556667140908

