54
CSD_code = LIKPEB | q = 0 | S = 0 | Stoichiometry = C22H31Ta | MND = 9
Ta        2.34542554295879    2.22947751967355    0.42775814747502
C         0.96508403625588    0.94067645920048   -1.64034460231636
C         0.43311335105106    2.20758341368958   -1.89724115347417
C         1.49048713868217    3.08431586155418   -2.17782871709463
C         2.69522988341198    2.36185535972512   -2.10038550177198
C         2.37440525966165    1.01940849710609   -1.75419037134769
C         3.30285732587672   -0.16238459713841   -1.62099177809344
C         4.77593912797205    0.25621310178687   -1.74120899931744
C         2.97149926773770   -1.15089762491142   -2.75185357984617
C         3.11091369245907   -0.77226400266057   -0.23232926607874
C         3.39204888118351   -2.11649036237600   -0.01868603493194
C         3.23418660253863   -2.69368473188937    1.23051148112505
C         2.77862442733107   -1.89791913704479    2.27081747203515
C         2.50789135633736   -0.54936521758119    2.08256720763038
C         2.68865349920344    0.03284964807008    0.82783562236508
C         3.54254453865959   -4.14259302149803    1.46304459822883
C         1.98928937445473    0.25379221689782    3.24308237666317
C         3.89591321634074    2.98020389151462    1.86023538120934
C         4.15279374558369    3.54001398415996    0.54176413551942
C         3.95689020884801    5.01878164713613    0.32500326894724
C         0.43918861213600    3.00987642474071    1.41678139072932
C         0.05692735019769    4.41965237820711    0.99127817125636
C        -1.25800789278600    4.87859094915504    1.62425882198101
H         0.40324426856191    0.04384597877343   -1.43136028852673
H        -0.61506146531450    2.45978041522446   -1.90821621318889
H         1.39703850107768    4.11970230304431   -2.46563613984249
H         3.65957968632183    2.72349219350886   -2.42090296744586
H         4.97399756472192    0.68302999765981   -2.72234109048905
H         5.41625844372166   -0.61412569932242   -1.60948522145729
H         5.03287487919931    0.98504308722747   -0.97214216770296
H         2.01170977454556   -1.62897950081821   -2.57315506340241
H         3.73486385161538   -1.91907345163522   -2.84905891881744
H         2.91570525534558   -0.61112983296472   -3.69549440869509
H         3.73490215884472   -2.73329723019399   -0.83559669063441
H         2.63310191515670   -2.33937531618224    3.24756095435662
H         3.76614718759496   -4.64938508096546    0.52758078094447
H         2.69906465856757   -4.64135210281022    1.93796433262328
H         4.40324566979600   -4.24289014651938    2.12420605624571
H         0.98101444457769    0.60743469689245    3.03157397422181
H         2.62187983284699    1.12030048285650    3.43144198982102
H         1.95738563996746   -0.35634894004246    4.14267934146955
H         3.60111303065080    3.69567963410382    2.62740244534036
H         4.64474658453943    2.28701282140915    2.23827030749152
H         5.05392841027469    3.16862004684402    0.04786251816330
H         3.08733185867678    5.37809602534115    0.87679012765735
H         3.81508092275234    5.23871791801663   -0.73381272165771
H         4.82806431103064    5.58124335088042    0.66702889177442
H        -0.38401675078368    2.33291706054223    1.16132134914706
H         0.53166369073121    2.99800832259864    2.50957073312287
H        -0.04628850824596    4.46288464084462   -0.09728190164071
H         0.84541254736558    5.12101299443089    1.28668705649678
H        -2.07054003511237    4.21808201536117    1.32907389328612
H        -1.50458611393682    5.89028179932669    1.30871091250746
H        -1.18326076118335    4.86477885904664    2.70988005794225

