42
CSD_code = LIKVOQ | q = 0 | S = 0 | Stoichiometry = C13H21N2OReS4 | MND = 5
Re        0.20782943896260    0.93253299828704    2.50608934111342
O         0.20764141240118    1.23108452118947    4.15757710887631
S         2.11013538826905    0.36322979426706    1.36971247468820
S        -1.64377743777247    0.50603564320967    1.20157401364891
S         0.34720816744211    3.07725614064331    1.63771908623357
N         0.09073765444346   -1.40836542233843    2.87326750667227
C         2.33547541474190   -1.41597695356337    1.77541896950263
C         1.48032955262485   -1.87851029208707    2.94593033242268
C        -0.64969097002965   -2.01351900325573    1.76056117123981
C        -1.95541994467875   -1.27705003381352    1.49777121888559
C        -0.59585573477359   -1.58367105428441    4.16425159399166
C        -0.92247068250945   -3.02365967620140    4.55709752499875
S        -1.22582221279766   -3.16288480139153    6.34926382787728
C        -2.71765321582026   -2.14295357526161    6.51043493807376
C        -1.27977476742628    3.74141034174411    1.78496957182857
C        -1.78934947276060    4.55447350635716    0.77932094421631
C        -3.04174128571087    5.11529608498241    0.91151735036036
C        -3.81254678212490    4.87780029255491    2.05149679679646
C        -3.28772440571579    4.06419602028453    3.05929712793065
C        -2.03559659972702    3.50567309981820    2.92943855395324
N        -5.09260415470457    5.38147628247591    2.15207117271611
H         3.38898705527352   -1.55094902474314    2.02010845825674
H         2.12447350774249   -1.97200400163231    0.85999711378367
H         1.52123975771027   -2.97585970503649    2.99983229838705
H         1.90502374218633   -1.46394309448577    3.86448777793402
H        -0.84351487360134   -3.07847624284237    1.94966394110872
H        -0.03515162107685   -1.93640409342058    0.85867433232339
H        -2.42847485718536   -1.65643106062450    0.59174718452455
H        -2.66116312460523   -1.36850414737346    2.32330496938166
H         0.04310523414135   -1.13806310819905    4.93224642393566
H        -1.51707480707387   -0.99641093407623    4.13679960273495
H        -0.08163571497617   -3.69276896114974    4.37960869928665
H        -1.80497792891584   -3.40694940371993    4.04298548641042
H        -3.46124731311198   -2.47336555681286    5.79079193947528
H        -2.47154868083804   -1.09527013565857    6.36781019144217
H        -3.08553190869621   -2.30014441231453    7.51880853691411
H        -1.19618779304934    4.74279342767096   -0.10179265474092
H        -3.43745080313831    5.74470325612726    0.12726760345263
H        -3.87367936480897    3.87905584660574    3.94824705683579
H        -1.62039579997519    2.88411357783542    3.71531031370262
H        -5.31265583661439    6.16648830653381    1.56100457963627
H        -5.48336823168716    5.42981555368803    3.07891551918836

