36
CSD_code = LIKWUY | q = 0 | S = 0 | Stoichiometry = C13H13CdCl4N3S2 | MND = 4
C         4.55628785416352   -1.77389395602696    4.91076862755100
C         4.93786681020349   -1.82064281496513    3.57954257326993
H         5.10145424206665   -0.89527564531769    3.05012604522865
C         4.28550500501669   -2.94927180008574    5.60743651493238
C         4.37872398429170   -4.17219970512189    4.95337733689566
H         4.15465619014565   -5.07749502966845    5.49479696683431
C         4.74797085661240   -4.22524368341946    3.62620734586195
H         4.82608285333547   -5.17627257657734    3.11298189258289
C         5.05106141457537   -3.04992367482709    2.93007602248835
N         5.39471025234970   -3.18297161004420    1.59124664427623
C         6.25061740069652   -2.48041145160727    0.95960125878416
N         6.57199075304962   -2.71318980708417   -0.35774975335818
S         7.20597471638409   -1.16140499846331    1.67063980475625
C         6.92010763852882   -1.53916567461821   -1.14422945127864
H         6.22248409494728   -0.74318014401358   -0.86950835206610
H         6.76989364640540   -1.76668911775499   -2.19879110725153
C         8.68305417734429   -1.33872546775484    0.60565477607786
H         9.05560651981000   -2.35000033086416    0.76791585541263
H         9.40791464331915   -0.62683816791903    0.99397475790637
C         8.35804162208513   -1.09463070944745   -0.86389144198567
H         8.45553484319911   -0.03830710876077   -1.11199100135433
H         9.05855239350886   -1.66007052077681   -1.47962121901510
C         6.53494038808557   -3.95256805576513   -0.92551946970852
N         6.11493563549142   -5.01223558081332   -0.35313755768273
C         6.34282180818614   -6.21322874073131   -1.12636922964366
H         5.49065091086142   -6.88770399055806   -0.99797696080063
H         7.24199003766199   -6.70323735670512   -0.72916241468416
C         6.52932251391793   -5.82795046876282   -2.59696111523926
H         5.57426311569456   -5.75406260606375   -3.12077905146376
H         7.20355159917110   -6.49016823183691   -3.13284662587732
S         7.23663227105911   -4.15708176923409   -2.53944069030557
Cl        3.82083084194314   -2.89382944341707    7.26135637773212
Cl        4.41494615863293   -0.24851059962268    5.69222190831511
Cd        3.87571493743296   -4.51614033722062    0.30988907364620
Cl        3.04178611819198   -6.67879940000041    0.22483963582200
Cl        3.63952175163289   -3.18817942414169   -1.60537797666558

