87
CSD_code = LIKWIM | q = 0 | S = 0 | Stoichiometry = C40H39BrCuN3P2S | MND = 4
Cu        5.65043561124191    7.70380360554882    3.31887955316487
Br        3.32346606826294    7.75771644715295    3.42549996511951
S         6.30030287125016    7.11484592912773    0.95236116123531
P         6.57811434832259    5.89081442479116    4.34403915504618
P         6.74191056255397    9.57029700547666    3.94674320055044
N         5.98192683546405    4.81107223611778   -0.25207942981305
H         5.39304920683847    4.02650289971001   -0.48829752980780
H         6.73098750460235    5.10069486194780   -0.85458996098535
N         4.38655078177383    5.32117776306727    1.30663242460805
H         3.97303746565518    5.96115716697971    1.99357553418691
N         3.79328388748521    4.14148420152078    0.97790078585308
C         5.50156377961183    5.68003375855339    0.65301791798242
C         2.76184520160339    3.72999830645924    1.59960752301946
C         2.07969509874933    4.42622649975276    2.73162905166231
H         1.72086193012753    5.41081485857937    2.43140079642510
H         2.77461649148975    4.58417251657715    3.55600671492691
H         1.23972703567706    3.84074880265082    3.09088341901827
C         2.19183844381180    2.42550073467217    1.14887304496984
H         2.77369974197086    2.01546698650680    0.32854295988622
H         1.16155808190396    2.56617410911195    0.82548061923905
H         2.19027388935675    1.72098467194389    1.97908429759750
C         5.78892559895802    4.24678444918423    4.36146599676325
C         6.03159987280201    3.42421311091702    3.26096513796299
H         6.73007687812553    3.74759379116530    2.49938476254051
C         5.39259378252173    2.20638678088329    3.14619883622184
H         5.58765684767202    1.57552739137609    2.29162232757469
C         4.49768325146886    1.79907067619602    4.12351751466162
H         3.99891155139679    0.84497709978328    4.03611445613059
C         4.24438285184450    2.61637508110170    5.21202840980231
H         3.54500756120531    2.30269439506048    5.97330767995723
C         4.87967440715273    3.84012103107837    5.33181441390328
H         4.67420221337156    4.47348108555129    6.18293394088460
C         6.57602771018625    6.37829358972049    6.09855890092734
C         5.36972050930030    6.87316289430237    6.59458015320378
H         4.49697740486433    6.90282410009584    5.95472733736340
C         5.28530588751382    7.33579716526771    7.89320445243703
H         4.34409017921577    7.70644100940803    8.27017133980908
C         6.41172415122942    7.34128887232070    8.69906385708684
H         6.35147807554017    7.71640849470596    9.70983884433894
C         7.61790635969927    6.87487322940923    8.20430051417734
H         8.49991535869079    6.88742187394349    8.82861801077958
C         7.70445403579317    6.39135600453749    6.91086190823826
H         8.65040236048209    6.02477122085469    6.53558583202109
C         8.30635192587353    5.40706219749780    4.02732394779208
C         8.89967902180074    4.31765921160642    4.66111163938553
H         8.32227448621785    3.71855873474125    5.35292704128293
C        10.22051417692305    4.00798746586594    4.39987991288218
H        10.68280834226565    3.16671707967331    4.89623827014063
C        10.95334963201859    4.77345848929146    3.50450149617191
H        11.98639200627467    4.52668755304639    3.30695972558166
C        10.36156772345656    5.84584386450492    2.85998191238548
H        10.92661549291323    6.43913625146247    2.15621189354874
C         9.03964660336028    6.16156679770565    3.11963654427675
H         8.56668911331190    6.99054113963355    2.60894185347596
C         6.33434122626998   10.07675962290032    5.64944816226568
C         4.97095113604962   10.17759716844605    5.92322981213807
H         4.25142180628242    9.97313811258539    5.14135005215868
C         4.53714618952655   10.53925993564379    7.18285369800041
H         3.47897656054936   10.61935693232021    7.38302649647881
C         5.46017809396748   10.79276683506293    8.18498018012469
H         5.12443376468925   11.07222269019456    9.17297479898335
C         6.81460063074641   10.68864422672887    7.91862284664423
H         7.53652853015717   10.88972315200581    8.69738308068794
C         7.25609551421159   10.33334545545511    6.65630055489987
H         8.31649278380107   10.26966969932406    6.45764052687084
C         8.55220376966449    9.70875967604218    3.86303209720260
C         9.29861115392177    8.84345498472710    4.66249308489038
H         8.78423332819302    8.18337455440465    5.35021194459033
C        10.67640942368793    8.82518526293844    4.57488661073400
H        11.24759269097695    8.15693467711501    5.20358467195319
C        11.32190060881091    9.65368972226781    3.67025083872168
H        12.39947146965867    9.63741647842658    3.59686493751342
C        10.58371015191584   10.49374272233202    2.85294876323211
H        11.08592857955797   11.12992577761162    2.13843730074375
C         9.20325578831898   10.52111421432685    2.94131669070270
H         8.62991023724502   11.17137197603916    2.29538878668238
C         6.17445715960741   11.03732794004699    3.02894709166737
C         6.31535627375160   12.32551619074500    3.53815128336291
H         6.78417923086929   12.47452537160395    4.50171218434749
C         5.85239857264264   13.40381507838827    2.80910439531930
H         5.96050321932927   14.40421315633968    3.20309104634887
C         5.24580686006661   13.20502331253851    1.57776568671207
H         4.88097604829939   14.05241429806869    1.01585723628134
C         5.10313743423725   11.92495676989483    1.07013122178936
H         4.62687748889026   11.76928973627149    0.11353841406530
C         5.56584068892955   10.84076531547452    1.79435689964902
H         5.45802336649168    9.83572904118175    1.40674853123503

