71
CSD_code = LIKZUD | q = 0 | S = 0 | Stoichiometry = C19H40F3NO4P2RuS | MND = 6
C         1.64408350970013   14.24997381638576    9.63393276385015
H         0.62974482298596   14.33702581148799    9.20998345377436
H         1.55676081142902   14.09436969767001   10.71375689150796
H         3.76164172107087   14.83385904319615   11.60860851588188
C         2.35884705523161   13.04417729158208    9.02319340113114
H         2.27887277480536   13.05265930756066    7.93396913933346
H         1.89405692138319   12.12393340436854    9.38398712282705
C         4.99565837779346   12.63747794200436    7.91831180050246
H         4.54574480637617   13.32129285651451    7.18459402981002
C         6.48707542342902   12.95910010959082    7.97344713840299
H         6.91700064087234   12.91287973646218    6.97450307753846
H         7.02705224427705   12.26198303113248    8.60873174949663
H         6.63516717778962   13.96784840264067    8.35935870003129
C         4.73568666947724   11.20218970348227    7.47125129011044
H         3.67332080239426   10.96326312871530    7.49053811620677
H         5.26484820397022   10.49456693101301    8.10498528023357
H         5.09460782992154   11.07005715243480    6.45189799107343
C         4.29165073463257   11.62516787392214   10.62458987058783
H         3.96702593307031   10.74925072281593   10.04997777677272
C         3.38686760201971   11.79013864232915   11.84146483568468
H         2.33779056769583   11.86448495007042   11.56422957225949
H         3.67041563984789   12.68971602804362   12.38611719192737
H         3.49896685478009   10.93338765772045   12.50356894578916
C         5.73423519207294   11.44918315678659   11.08657036605124
H         6.38420599771363   11.14777007817230   10.27003988320615
H         5.79132685712295   10.68548891160115   11.86067124965797
H         6.10134078799831   12.38832315016718   11.49986857754825
C         1.67904730615562   16.60204020338050   10.10891241137135
H         1.44406698909024   16.25736499783638   11.12008079483538
H         0.73096529120127   16.81794668398110    9.58972029514557
C         2.51716834277488   17.87746408217224   10.20517398025401
H         1.98021387955886   18.62814733653405   10.79107619270425
H         2.71912074456516   18.29112017181847    9.21317676892106
C         5.22192933892611   18.85538202540962   10.32086587746752
H         5.10441184360614   18.77644898121891    9.23521150771838
C         6.69790657138280   18.62551653260354   10.63801270832251
H         6.95626466717940   17.57482514520834   10.50576408750612
H         6.93959801074490   18.92993795385411   11.65512947904581
H         7.31403152121672   19.19926199420087    9.94974900953043
C         4.77306350297403   20.25044170970460   10.75126723471869
H         5.30426626475017   20.98966490015961   10.15501948594206
H         5.00714759707998   20.43913080837799   11.79735125871790
H         3.70630188575632   20.39564083972739   10.59429037703436
C         3.95149569385149   17.83582262697046   12.77571035457552
H         3.93177157286854   18.92443751311994   12.89309884471588
C         5.14944833145447   17.25209204879365   13.51928622240017
H         5.17919605476057   16.17300154565145   13.36305141673991
H         5.06926309332485   17.45133414955348   14.58682462871118
H         6.08476581576471   17.67148390387443   13.16074499776972
C         2.66553464114982   17.25676165535544   13.35452483934255
H         1.78015958529984   17.72585442141186   12.93161902968483
H         2.64621931639198   17.41949542341590   14.43107951520678
H         2.63068593276798   16.18312035248266   13.17512505917034
C         2.36982614167109   15.78947804916810    7.97760271743836
H         2.92526729388833   15.02943653515069    7.43342926071775
H         2.84054679873227   16.74486796978229    7.75928031413390
H         1.33663415500091   15.80863052380381    7.60395455739609
C         6.10356875763033   15.04238256371191   10.99649948195789
C         5.62251162633885   16.23667479775607    5.84359097247168
F         5.72346417802027   17.12017722505533    4.85404761932459
F         6.67368426468452   15.41848793506044    5.77994307682644
F         4.53137279054636   15.48814891570726    5.60504303897685
N         2.38295175119338   15.50800501609115    9.41545496820788
O         7.17272222185356   14.90508777559739   11.40140671918975
O         5.23286786616011   15.90955763483909    8.35332203516439
O         6.78248929081127   17.67928935907396    7.69531914359856
O         4.37417976230092   17.96178500381219    7.36350653644321
P         4.15732547024309   13.11880787243927    9.51323812260747
P         4.16230607162624   17.46076843064117   10.95669473305986
Ru        4.42201290725617   15.26427365554926   10.30271729428535
S         5.50232889758600   17.07333419208130    7.51653429945237

