68
CSD_code = LIKZOX | q = 0 | S = 0 | Stoichiometry = C18H38F3NO4P2RuS | MND = 6
Ru        2.46612572352449    5.84816393868025   12.12883845599508
S         0.15241862487901    4.50784150192557   10.26208546663007
P         3.93718254934066    4.65637622092717   10.81784829794188
P         0.72516998321294    6.47016212498917   13.50167785962180
F        -1.67198918940919    4.18978609460779    8.33403905127045
F        -1.47758536054030    6.21083647469065    9.06352016656740
F         0.03516548172653    5.38082630641985    7.76669487317626
O         3.25249080756110    8.58119467674415   11.21843232485321
O         1.00160637657872    5.66365832369036   10.50077390685664
O         0.85230200473554    3.33043951969474    9.81922192590347
O        -0.84600804073644    4.27744455997339   11.27384957573305
N         1.86495539346623    3.85468183701666   12.75753479283258
C         2.93836338045136    2.85936750203629   12.65117188658420
H         2.54948824124022    1.85152393007036   12.86623940755343
H         3.69151827864096    3.10938813899954   13.40680469485372
C         3.55744165823440    2.88972154171017   11.25610386496486
H         2.82632351010598    2.52554976885430   10.52920867305727
H         4.44762811652921    2.25807989405173   11.21384390799088
C         3.68709170079394    4.62929431074830    8.97014705971657
H         2.72752963615640    4.10757977213039    8.86356657474430
C         4.75418316501630    3.85573184404318    8.20168318691949
H         4.42590716560895    3.71603881673487    7.17319640614827
H         4.92173331713116    2.87267820958515    8.63813008571939
H         5.69599702901823    4.40051572601706    8.18016827167517
C         3.50475908447537    6.04135788891569    8.41911039717196
H         3.13973485331239    5.99596244046742    7.39441594590000
H         4.43759080495047    6.60126175142744    8.42545974414061
H         2.77152459242827    6.58143830300523    9.01764107891748
C         5.77831030834218    4.76956963433269   11.08725671873216
H         6.27773591649015    4.10641068286084   10.37270738000012
C         6.14278690862636    4.34358836665077   12.50515001101746
H         5.96722001432067    3.28269594677762   12.66728793771820
H         5.55675789636845    4.91955479736826   13.22066525486948
H         7.19761266121034    4.53999678949094   12.68937247441480
C         6.20712720902881    6.21475396391982   10.85887008569314
H         6.05310861937269    6.51729675289604    9.82662829183852
H         7.26179935403871    6.34303019758567   11.09706675193315
H         5.61871805326537    6.86930789479751   11.50393668738744
C         1.23946748564421    3.82786223463113   14.08514104230277
H         2.01711686670881    4.07144225490305   14.81777550172091
H         0.85384063845477    2.82027115501338   14.30709099327056
C         0.10414829088189    4.84559568891614   14.15948741138790
H        -0.26914245433690    4.93507749831342   15.18213427275936
H        -0.71231334039013    4.52247981898621   13.50801896326770
C        -0.82778596386103    7.16293361328921   12.73653346149576
H        -1.20707839817173    6.31520077553152   12.15180191898439
C        -1.89433278411327    7.57942595912112   13.74477620362301
H        -2.82783761127818    7.77502381766507   13.21999086522380
H        -1.60780737491714    8.49034392758646   14.26671494289602
H        -2.07682494233266    6.79340260617222   14.47540949146392
H         3.46044545791668    5.89577543861063   13.28640710232812
H         1.14179160859207    3.59438088094643   12.07824236433032
C        -0.50540645538549    8.28821904934448   11.75642558969200
H         0.29927321685476    7.98038965594777   11.08900874913577
H        -0.20073588162952    9.19714734643787   12.27092925924738
H        -1.38113087709765    8.51508878077719   11.15070443122957
C         1.02445033004351    7.46254812757910   15.05097662918987
H         0.06555068261018    7.61789067931960   15.55729211774622
C         1.63702805736688    8.80057267542429   14.65205948349235
H         2.53256530425123    8.62097985117504   14.05497931570931
H         1.91374689971693    9.37313438584193   15.53586384254499
H         0.94375606478974    9.39670095906389   14.06484530361439
C         1.97253031554140    6.72308309068738   15.98863397857676
H         1.52075755015068    5.82011341088162   16.39261225828162
H         2.23991030530988    7.36650790558742   16.82510512509621
H         2.88412538628230    6.46100928377153   15.45243635680650
C         2.95717871175009    7.52725369494660   11.57956413480719
C        -0.79981291885813    5.09933898869985    8.76888941272790

