52
CSD_code = LILCOZ | q = 0 | S = 0 | Stoichiometry = C23H25Cl2NTi | MND = 8
Ti        1.28827934751808    3.45950848279933    3.86558506097687
Cl       -0.84037166719769    3.18549197867317    4.27847480905599
Cl        1.33064100978659    2.17902770732202    2.08312206578246
N         1.35234012000474    5.04410066298223    3.05770805338847
C         2.74617666826557    4.40189381327556    5.38842535159232
C         3.45936546000869    3.49535342789483    4.54340626634177
C         2.95478355810630    2.18649391318285    4.76743377756631
C         1.89803017331910    2.28612294157216    5.71501863622578
C         1.77924436640322    3.65060863656494    6.10920826233535
C         3.11831579876554    5.84529883103305    5.57967960102512
C         4.62219047999579    3.85107747180091    3.66446094326411
C         3.54297736121916    0.92687342057083    4.20315001817096
C         1.11833667875126    1.15146310892693    6.31125014098852
C         0.85026226378777    4.13970408482724    7.18354552024873
C         0.62165178178442    5.84668697997772    2.41271397931855
C         1.05376963428054    6.36198889630074    1.09479015591353
C         0.71342351445839    7.63794547572554    0.65206851210224
C         1.16547636472212    8.08572347547007   -0.57623267140900
C         1.95156763463927    7.26753504076901   -1.37139475851436
C         2.29980929490222    5.99946647643633   -0.93172164501492
C         1.86127817064128    5.54950645764819    0.29849631329218
C        -0.67089367156553    6.29242472583443    2.98557447616212
C        -0.79322823831679    6.38627567487975    4.37247560433355
C        -2.00460559967603    6.72544613719855    4.94245471868092
C        -3.10927193130423    6.95644974864073    4.13693610727550
C        -2.99823448150618    6.84826571958449    2.76076960010546
C        -1.78484291215597    6.52102201323381    2.18187875240970
H         4.12253883130602    5.91334840055286    6.00385510299005
H         3.11466532401345    6.38064859867393    4.62854748938266
H         2.42929787237937    6.34534308500044    6.25726264767157
H         4.67599343491047    3.17691074472705    2.80966976536922
H         4.52526401633276    4.87200145497074    3.29554156424234
H         5.55984814954293    3.77279029726556    4.22097678568702
H         2.87776528349735    0.07919189056918    4.35653815207778
H         4.49387919241027    0.70944881445629    4.69605407552605
H         3.72820956946240    1.02451216213450    3.13281698172525
H         1.04885329593223    0.31342918934944    5.61748046062971
H         0.10724006085527    1.47192427511351    6.56279850780232
H         1.60322864633233    0.79740391796081    7.22520890813642
H         1.03536492655735    3.59599082115950    8.11200326308306
H        -0.19165746893864    3.97944251270608    6.89694795730369
H         0.99537449806123    5.20090017018306    7.37683907307693
H         0.11137167607351    8.28189484667068    1.27690535493764
H         0.90304887069649    9.07718649316932   -0.91534490911243
H         2.29529702645193    7.61958965688766   -2.33290890755020
H         2.91397728615060    5.36256886656846   -1.55078842810185
H         2.11862582114160    4.56032642063998    0.66010430529191
H         0.08094101957991    6.19320445926805    4.98581699735748
H        -2.09408779209151    6.80114981886119    6.01618848471254
H        -4.05928835585831    7.21132157870484    4.58299545009937
H        -3.86306691200375    7.01246929009779    2.13461329037214
H        -1.70625545223512    6.41304693133828    1.10949997559760

