84
CSD_code = LILGET | q = 0 | S = 0 | Stoichiometry = C35H45O2ScSi | MND = 8
Sc        3.25274701898664   13.40611126000072   12.02015575291451
C         2.66633218734362   14.92790631176555   13.77910763101425
C         4.08853123998317   14.76538898324745   13.89165447837181
C         4.35795774137233   13.45259630871361   14.34115092862551
C         3.11811623321682   12.76916509942069   14.47754259065029
C         2.08165160905395   13.67532418798458   14.14834813566356
C         5.11455986198510   15.86243856621285   13.81837098691460
H         5.24447831081527   16.31926216993351   14.80286656560144
H         4.81104165900007   16.64315084431959   13.12692016013467
H         6.08576907690460   15.47717585228178   13.50501671793744
C         5.68320445573088   12.97002892037121   14.86299931574426
H         6.51621666813163   13.43646840901702   14.33846494929440
H         5.78451402617338   11.88787802118588   14.78340347520867
H         5.77646170515922   13.22749927668868   15.92126420783222
C         2.91106209044950   11.42070884490811   15.11244590667774
H         2.61205973511569   11.54234979138852   16.15633734622782
H         3.82302903252712   10.82612643395172   15.09722376552816
H         2.12346827350925   10.85621336430204   14.61079963546795
C         0.62286426605740   13.42961918604691   14.40988990469751
H         0.35413440268011   12.38832396009946   14.23647726552764
H        -0.00424651664136   14.06039383579561   13.78558622776170
H         0.39028948278309   13.66369061995393   15.45147088356363
Si        1.64960998219010   16.49396043713799   13.58767257676050
C         2.60405325774819   18.12717759658716   13.30407423762656
H         3.32029818570126   18.32160349875412   14.09471507001734
H         1.89993642226519   18.95405876793858   13.29633901469318
H         3.13014442108388   18.14162833572226   12.35462807520225
C         0.42629626618109   16.30469928466968   12.11852674569408
H         0.77271170200336   15.54293487977628   11.42032849705187
H         0.32219422872937   17.23455326488710   11.56850281494230
H        -0.56479861534411   16.01706338180006   12.45538188244781
C         0.67165888302143   16.74618563719441   15.20093571807178
C        -0.52100295711436   17.46136807976665   15.21704725093325
H        -0.90465689013851   17.86941540055757   14.29276375594831
C        -1.22473284153502   17.65891101928660   16.39136003228307
H        -2.15096916328646   18.21649604967156   16.38061438226894
C        -0.74299102164246   17.14181028374963   17.58190496754375
H        -1.29109192554255   17.29268687928680   18.50105406152607
C         0.44499943676288   16.43054888574229   17.58743047733818
H         0.82670102646257   16.02531437639499   18.51437482364141
C         1.14137078626712   16.23788980280311   16.40819167544990
H         2.06594652043682   15.67859242971622   16.41657595748599
C         1.53868621089542   12.16774609010312   11.30473024425972
H         1.38666517853193   11.30841804848166   11.97841500194704
H         0.66290616285946   12.83084677512394   11.38096731321541
C         1.68663163187112   11.70360969208033    9.92437542272280
C         1.36491478198057   12.53434419900443    8.83761715811622
H         0.97153108246150   13.52428553389188    9.03489137577862
C         1.53097979524625   12.11376216765920    7.53506566129287
H         1.27977419297888   12.77922287727392    6.72078909830984
C         2.01208397843006   10.84144405628435    7.26128864441252
H         2.14774916736198   10.51531690123559    6.24113492477774
C         2.28981519919330    9.98607942394243    8.31484210107763
H         2.63025796461240    8.97876300508413    8.11599334909025
C         2.11914677630039   10.40388233868211    9.61988566067330
H         2.30260144740930    9.70431953129983   10.42706407497883
C         3.62257901262802   14.94926118320422   10.46902824880337
H         2.76459451637790   14.94514412448529    9.78418019275865
H         3.68960948154232   15.93535902257218   10.95013897315913
C         4.84530282146251   14.66643017815330    9.72117316542950
C         6.07274729914067   15.26160233233715   10.06246319020907
H         6.10983558249798   15.94237035007083   10.90443731414422
C         7.21985450331234   15.01329280153502    9.33492598957721
H         8.14743376274453   15.49231632069027    9.61717233660666
C         7.18645611107580   14.17034887410504    8.23508794367095
H         8.08100138496480   13.98668493764780    7.65955166193781
C         5.98382826167630   13.57807298106218    7.87410705606795
H         5.94294612987025   12.93094454691507    7.00862986398875
C         4.83620042433375   13.81704298007070    8.60076054012593
H         3.90433681180121   13.35142080645102    8.30530816505674
O         4.95351331693229   11.92790520629712   11.78686638388289
C         6.34570582118187   12.16630680175702   11.55007075367658
H         6.91210127110364   11.89840599689944   12.45244192419409
H         6.46250981001948   13.22931393851623   11.33026592284955
C         6.84362215190136   11.32188811802635   10.37703240491238
H         6.30930113424181   11.61922466354436    9.46392743368449
H         7.91534514651200   11.46136953261595   10.23454362208387
O         6.64143531634954    9.94976568639512   10.63544691850563
C         5.27120266993977    9.70393574188705   10.85790584466955
H         5.17451906095367    8.63716991144148   11.06404539636928
H         4.69099430861351    9.96623019057325    9.96099610079094
C         4.77088783755884   10.53209211782062   12.04274829425144
H         3.70375669677868   10.37334445995563   12.21192379474042
H         5.33881551975683   10.25339701579513   12.94214168492670

