76
CSD_code = LILGIX | q = 0 | S = 0 | Stoichiometry = C30H43OScSi | MND = 8
Sc        4.31376879639327    4.35027086429631    5.02495249720720
C         6.54030058182255    4.84438402703101    5.80066345527814
C         6.34697225059867    3.44243220601246    6.02002958967718
C         5.39406703258440    3.26604952034631    7.05414957885818
C         4.98559338583861    4.55459359448171    7.49264747212787
C         5.66955848576071    5.51909532198124    6.71680453016494
C         7.20633233368152    2.33278294527627    5.48164099962904
H         8.03680798614329    2.14435570952721    6.16699311516298
H         7.62323355266419    2.58792224024287    4.51113648477346
H         6.64522915486234    1.40300577830299    5.38871843880461
C         5.11942577654341    1.94181549517767    7.71593728678885
H         4.79016430644005    1.18910575952939    6.99737655881000
H         4.35898529486484    2.02612458392605    8.48917642379773
H         6.03248139302008    1.56942341886079    8.18623379598433
C         4.16813014160537    4.88787319215450    8.71271721671897
H         4.76303556337990    5.49468768773067    9.39809880347881
H         3.87105494470743    3.98756808676005    9.24734018777422
H         3.26760812328844    5.45682155031719    8.46776940074573
C         5.64447101870336    6.99348314200728    7.01265578894019
H         4.68550150607717    7.28975086117826    7.43792113124655
H         5.82486237245541    7.58470962985260    6.12003246799288
H         6.42033108373703    7.24088915757635    7.74176903452192
Si        7.92480613070357    5.54298109327063    4.73722365736447
C         7.72618945981361    4.88434272006159    2.94171614580008
H         8.43967339128318    4.09540450910791    2.72308292120704
H         7.88706174485735    5.67050196990905    2.21011884063091
H         6.72558631410029    4.48058023752755    2.78332343193297
C         8.01197943745761    7.44911101835090    4.60735325777090
H         8.17007011544522    7.91468051046926    5.57363943337118
H         7.11850229505609    7.88012121016429    4.16680628755697
H         8.84874214099764    7.72800221553660    3.97372609581587
C         9.62658625179012    5.00023891431795    5.42564616591689
H        10.43450024143067    5.42080977635841    4.83452687533427
H         9.74132577400149    3.92177289802855    5.41782401748300
H         9.75942089465838    5.33523531528146    6.44986264584231
C         3.94509782327631    6.29986779791179    4.00135162753653
H         3.47780215002556    7.00215888469336    4.71009822774757
H         4.95251281084490    6.66291375948245    3.74705016647834
C         3.14260281635137    6.19272039454644    2.78342494795746
C         1.77406166889301    6.50272187027168    2.75625827761086
H         1.29873775003305    6.88164578405796    3.65230297712793
C         1.02301462813804    6.35498045182354    1.60699175157548
H        -0.03137313730453    6.59589336098056    1.62286824013245
C         1.61215593339422    5.91397620854020    0.43335378358981
H         1.02320307957686    5.79445110768090   -0.46367197265298
C         2.97447263558652    5.65005095631958    0.42104806775237
H         3.45087397726361    5.33382939965487   -0.49654473184303
C         3.72561802767886    5.79338948175451    1.56790660348717
H         4.79129736354809    5.60019346926495    1.54022261663747
C         4.23174286621644    2.80406995007523    3.43840618252132
H         4.27427481826856    3.30793945764331    2.46417445614778
H         5.06582382659570    2.09418827793030    3.51845081439912
C         2.95529201249663    2.11360931176046    3.58374958913397
C         2.84590457316383    0.90141182628621    4.28839505337472
H         3.73849920922190    0.46650091240914    4.72532078456269
C         1.63731379106498    0.24656936945797    4.41348095664582
H         1.58588285318237   -0.68762281101899    4.95661875590387
C         0.49049926879116    0.77239079782213    3.83709874538292
H        -0.45319520317489    0.25476281945362    3.92876634104434
C         0.57630322617048    1.96072030850048    3.12265404593242
H        -0.30902710946953    2.36994566952882    2.65471799774967
C         1.78102358576085    2.61783857479174    2.99384867197177
H         1.83796934397053    3.53405123783907    2.41881271203252
O         2.32093583262402    4.01469793033847    6.01880871820199
C         1.89978518401004    2.90829159773798    6.83737196532065
H         2.20776596240826    3.10165489936098    7.87153455179814
H         2.38219645914077    1.99991004164674    6.46941484311199
C         0.38102605333938    2.84920902563298    6.73826128843815
H        -0.06870967363689    2.38025332816929    7.60998736713983
H         0.08477535617105    2.30411842294890    5.84197057036894
C         0.03303812420625    4.32706530905561    6.60341256020891
H         0.06069978109048    4.81592924918113    7.57868988244086
H        -0.93966987281063    4.49826541453080    6.15015030262717
C         1.17029899846001    4.82393074555444    5.71722556911973
H         0.92398094522083    4.69097000219221    4.65720957264584
H         1.42533298423304    5.87120824312163    5.90419308402632

