56
CSD_code = LILHUL | q = 1 | S = 0 | Stoichiometry = C26H25ClN3Ru(1+) | MND = 9
Ru        5.14829001107420    5.99041135224422    4.04097511077642
Cl        6.81652873603529    4.90544328333650    2.82203695670102
N         4.00516326527695    8.41679404677168   -0.63886970201403
N         3.95925324557793    5.29175326782826    2.63293329501036
N         5.32100721691387    7.39568033804641    2.65484470449943
C         5.53807290373388    9.36319152080625    0.72622832980524
C         3.39363076475787    4.08864586599800    2.71330575442641
H         3.51469964502647    3.55952645283650    3.64994821046958
C         3.88341597553495    5.98229471694534    1.46832249846790
C         6.15734757546779    8.42361558285333    2.81051977258699
H         6.74528605626344    8.42725207088624    3.71836457437416
C         4.41616802922194    9.59209096561960   -1.23669985301803
C         5.38441421253622   10.21029146260078   -0.41591750743061
C         6.31428440222218    9.42497282082072    1.87382182905100
H         7.01260036416296   10.22773232397497    2.04017277762836
C         4.60437840091047    7.24483663358857    1.51242539345765
C         4.66024079151463    8.25190696852706    0.53997676400247
C         4.01078220063275    6.96408343482656    5.81291792255305
C         5.55633948313655   11.97444061290714   -2.00035550960740
H         5.98762019773899   12.90757020649039   -2.32684600946854
C         5.96010430830778   11.41692306044012   -0.80524008563265
H         6.70210421929640   11.89733750419753   -0.18765738618461
C         4.01185456236779   10.15658371131490   -2.43499225108073
H         3.27135516931693    9.68098957805239   -3.05887387963255
C         3.23290479443970    5.43523437265740    0.36114759801037
H         3.23581477669630    5.95048606586293   -0.58310498539901
C         2.70823459806676    3.50938129430305    1.66517685258930
H         2.26625417561334    2.53392968782048    1.78149940314967
C         4.59709943155093   11.35425839093306   -2.80189074904572
H         4.30647058911302   11.82087079047399   -3.73010158292717
C         6.41456377394147    6.46235148304590    5.95243077635279
H         7.43371741312618    6.81233471169022    6.07568793019471
C         2.87961563685135    7.96483925307906    5.80528718256149
H         3.31401999149640    8.97056759716133    5.82565669758273
C         7.27909709328535    4.09564881221921    6.14638516697693
H         8.03289897067681    4.47709759296633    6.83206154433707
H         7.75716774048419    3.94779735088393    5.17466131902048
H         6.92346538437151    3.13050916437697    6.49829699161005
C         2.63403706532066    4.19479391902806    0.45870617764245
H         2.13645453394022    3.75890555723731   -0.39249904932136
C         5.35936644711889    7.38518617870834    5.88892383458901
H         5.57204469796262    8.44668472669877    5.97276831416187
C         4.81980126752264    4.63781945762214    5.92174898364564
H         4.59253913709365    3.58335959431888    6.03615647353866
C         6.15655223877028    5.06655945851772    5.99886030641993
C         2.05283407441858    7.83056650300021    4.52298645119178
H         2.69528995592700    7.93004830026205    3.64562765725459
H         1.29655670911167    8.60985568021480    4.48528701743765
H         1.54923102609380    6.86718665834211    4.48035063556511
C         3.76620720640101    5.57214380698276    5.79342447940290
H         2.74256964273358    5.21218441197273    5.80639605117226
C         2.00145297251696    7.79670447308273    7.04822968168086
H         2.59983646579495    7.87440064941596    7.95284811446038
H         1.49859526878646    6.83302409685439    7.04773947498535
H         1.24404783078194    8.57522283129765    7.07062900910423
H         3.27481735295715    7.83417934703424   -1.00981946767870

