47
CSD_code = LILLEZ | q = 0 | S = 0 | Stoichiometry = C19H22ClMnN2O2 | MND = 5
C         4.29214467699309   11.39276629410976    3.17621464670326
C         4.49440050675624   12.47171917026213    4.05036478346507
H         5.35934218000711   12.45086034433773    4.69656439078874
C         3.60279409990841   13.52351681860718    4.08521373212158
H         3.77539631070617   14.34405031694251    4.76659006344647
C         2.49170394965016   13.53700717198400    3.25701033462311
H         1.79750303916245   14.36260811473196    3.28828610925045
C         2.27517165346739   12.47897687166228    2.38862200300093
H         1.40435645853273   12.47968761466766    1.74647302098077
C         3.15317389292886   11.41336682506802    2.33704293252654
C         2.94959987115271   10.23432338285743    1.42477552353903
H         2.86927987793390    9.32340054143399    2.03306318743548
H         2.02253793709105   10.36195438961370    0.84538074440816
C         3.83019315137600    8.88725770623913   -0.35845618829829
H         3.07248764798804    9.14677988675002   -1.10926041350112
H         3.42893666729796    8.09641424465771    0.27798388539331
C         5.12449334934022    8.35299032027218   -1.01480121213676
H         5.32008703188595    7.36248489210642   -0.60228837760831
H         5.00896469298691    8.26305112390598   -2.10497879625781
C         4.24837219490374   11.27904883315127   -0.30407856829581
H         4.79281783360786   12.01373829191427    0.29745692956050
H         3.25214364346930   11.69499956378067   -0.51565241670728
C         4.95597413229700   11.07830462593147   -1.64256736793500
H         5.10669771535640   12.06258815988597   -2.09083262150786
H         4.31098841967671   10.51806074317056   -2.32015630482547
C         6.31190771964276   10.38695546146736   -1.53620099806628
H         6.64518127065320   10.10900022552658   -2.55170168756594
H         7.04837482321335   11.08120157192659   -1.12268165349626
C         7.53260552944477    8.46302162947567   -0.76727412853230
H         7.45292639201189    7.61076468904441   -0.07920205609436
H         7.68929181685313    8.07657621500218   -1.78863714761510
C         8.72103959172108    9.29660384381099   -0.36550936781754
C         9.90985849478124    9.24839508733625   -1.07222629262496
H         9.97478526319216    8.61743727698593   -1.94747322545305
C        11.01345718547475    9.98526125302451   -0.67296961190836
H        11.93108087927015    9.92812783144445   -1.23768674485156
C        10.93554579179193   10.79239677536907    0.44997698814322
H        11.79266094012889   11.36794087233393    0.76531608391072
C         9.76081808063966   10.86582794862195    1.17088085706091
H         9.67894921068197   11.48844990490526    2.05044931295132
C         8.64461298482583   10.12107064170420    0.77820054217517
N         4.09542219860294   10.04946259276880    0.50562901248687
N         6.26776845224995    9.20026438106444   -0.68223314058710
O         5.09982828568692   10.35848573853631    3.16902675320702
O         7.50992420882188   10.19512771621526    1.44957129700268
Cl        5.37451572189678    7.68142512701400    2.10745050013960
Mn        5.96718422393899    9.74334696837670    1.71042468736518

