46
CSD_code = LILMUO | q = 0 | S = 0 | Stoichiometry = C22H15NO7W | MND = 6
W         0.33556430809633   -3.29238635945977    9.01226775706773
O         2.20917745052136   -4.78399165421875   11.03622416165826
O        -0.66656222568480   -6.09543294211884    8.01564354198199
O        -2.03700476289794   -3.24720097922950   11.06789207142950
O         1.49821315751456   -0.54222699274817    9.97892527489031
O         2.47667399301378   -3.16982887680214    6.71690737278159
O        -1.92579949523589   -3.41871939142885    5.79434349843114
O        -2.81288187467292   -3.63910821860912    7.86180403576055
N        -0.95857676909564   -1.03842459502470    7.35786138045518
C         1.52665491441414   -4.24082863235909   10.29735074746927
C        -0.31722155672454   -5.06210416307505    8.35018973748161
C        -1.15145363197220   -3.26774108916083   10.34904531961432
C         1.03833068708273   -1.53369641557118    9.64662458334272
C         1.72444696562973   -3.24916984960404    7.57023059811778
C        -0.98103570720832   -2.24150001590458    7.63669690257117
C        -0.70862867702881    0.18655948736740    7.14932719649743
C        -1.33791324729360    1.19973837056295    7.99982297409598
C        -1.68535494461479    0.87856372895475    9.31329281971256
H        -1.47521553440874   -0.11228000176451    9.69356567020105
C        -2.27584276191880    1.82435083939784   10.12785876350840
H        -2.52996601609284    1.57063168669132   11.14590145503247
C        -2.54238187460062    3.09425522824485    9.64014993229844
H        -3.00470371065926    3.83224248853597   10.27813810917486
C        -2.22194435342880    3.41268256201837    8.33035421139964
H        -2.44177342165704    4.39680261522992    7.94413650767722
C        -1.62298879273955    2.47430521032083    7.51090028573151
H        -1.39303529058587    2.71894026755801    6.48454841236219
C         0.22498321170218    0.52290676949244    6.06868882587955
C         1.04581796362497    1.64625328989736    6.16175301412315
H         0.98753458173283    2.28435829388940    7.03085023526840
C         1.95779103615021    1.92058508682105    5.15997266440219
H         2.59306620982038    2.79006458320647    5.24029042149067
C         2.06500259131225    1.08149121286131    4.06271569443009
H         2.77807249728719    1.30135957608515    3.28252212335210
C         1.26276874909398   -0.04512155858850    3.97296432304705
H         1.35045187538600   -0.70644376370807    3.12442819824627
C         0.34978527672859   -0.32893756506292    4.96985509388810
H        -0.27879581289557   -1.20533010168872    4.89860406302288
C        -1.95958384524628   -3.14894786741424    6.96750112198399
C        -3.75168713290142   -4.62339758398270    7.40932035055765
H        -4.61265030171721   -4.10353690160565    6.97432630044464
H        -3.27852284656204   -5.22903190538212    6.62923107008951
C        -4.16421757023744   -5.46729322908787    8.60036762552060
H        -4.90825681898820   -6.19526575116661    8.29058190414249
H        -4.58425428160542   -4.83481594508689    9.37779674667966
H        -3.30318221045793   -5.99122894723825    9.00692690260925

