69
CSD_code = LILMAX | q = 0 | S = 0 | Stoichiometry = C25H38AuClF3P | MND = 4
Au        7.36956785754121    4.96350976749760    3.86280212313264
Cl        7.47189513297011    5.59745187205400    6.10157108661889
F         9.29525899350806    6.65593822782016    2.51550243016281
F        10.16156365886601    4.76215349326371    3.13077953656153
F         7.43885708572006    3.26691941792075   -2.01075621562079
P         5.19976458378424    4.15883838865320    4.27927892744235
C         9.26532140444067    5.71963845018132    3.50953499461160
C         7.42773819358564    4.43484793232783    1.93160265474054
C         6.82220955786558    5.22205776240120    0.96246180944265
H         6.35038027911041    6.15425025825450    1.23466818908886
C         6.82310113233075    4.83887810277881   -0.36893733634956
H         6.35512979174414    5.44829877064483   -1.12607377206791
C         7.44866744366687    3.65753242770300   -0.71862655658606
C         8.08393307909939    2.86677498747974    0.21962571304397
H         8.58316536260850    1.96075515545942   -0.08505819544113
C         8.07333468936258    3.26895630699139    1.54512704305125
H         8.59451983776460    2.66751656392228    2.27518085616117
C         4.51189755352008    3.20509320559040    2.83419835079221
H         4.85678291853506    3.79954599478954    1.97378761012460
C         5.18676448858881    1.83674696194092    2.74204851842039
H         6.26777045743095    1.94799409756188    2.85913835164936
H         4.81571980912271    1.19033005458049    3.53950746698570
C         4.86711659727682    1.18744127608241    1.39911037778769
H         5.25965960667002    1.80998884845554    0.59217505797752
H         5.35282952022563    0.21213013801691    1.33589274391145
C         3.35746822888894    1.03165939128298    1.24471272203934
H         3.12505387631324    0.59244634267924    0.27342110150792
H         2.98142886081249    0.35480380582972    2.01568771607908
C         2.66701253014542    2.38520164227879    1.37681433853068
H         1.58571110018480    2.26127489808512    1.29037622528724
H         2.99545692818417    3.03655240117946    0.56347424875162
C         2.99615043084891    3.04988324431456    2.71479742738678
H         2.49860415938516    4.02007252385760    2.74993569934436
H         2.60938016583881    2.43712653929801    3.53027896043589
C         5.14512645922723    3.18925553325130    5.85003099918914
H         5.35371647544124    3.97288605315983    6.59308571469978
C         6.29204905783046    2.18354167321144    5.96005996653395
H         6.15719527336559    1.35231725744113    5.26705282833732
H         7.23658660911976    2.67973370729270    5.71947293395827
C         6.33954430685172    1.64294795394988    7.38733702034436
H         6.54676225236296    2.46544560300113    8.07435990700919
H         7.14956121895748    0.91723131722725    7.47888054126783
C         5.00993236040298    0.98878106593605    7.75352707168314
H         4.83581546648282    0.13032055623499    7.09976946649937
H         5.04802178106691    0.62209243208091    8.78057588369076
C         3.86012252200901    1.98112596857257    7.60299298744448
H         4.00226622623153    2.80776960093735    8.30232669060453
H         2.91271950001692    1.49500735796749    7.84561089620444
C         3.80796297097459    2.52869949313705    6.17745236422129
H         3.61974155072654    1.70335505977559    5.48750606753896
H         2.98935280274353    3.24631222257202    6.08385439253562
C         3.99375437820293    5.54718038914457    4.51749287400234
H         2.98322149730425    5.12141937326880    4.45429588002179
C         4.13594138402181    6.26342218046759    5.86015405242796
H         3.92209205474540    5.57752024476930    6.68156983023221
H         5.15800443108798    6.62461601503348    5.98166259641933
C         3.16134223228160    7.43726286688501    5.93485161407359
H         2.13458610380159    7.06356677721521    5.88520210636968
H         3.28617548282127    7.94536045005875    6.89221985426538
C         3.39752520154496    8.41645564146692    4.79092185299697
H         4.40769210660113    8.82359254433264    4.86631131388200
H         2.69304656577312    9.24740583249703    4.85790023007860
C         3.23748988629807    7.70327563598146    3.45320256700867
H         3.42422631072866    8.39682153699665    2.63114097064022
H         2.21275361000651    7.33542010637562    3.35492721694616
C         4.21009475750439    6.53128889681313    3.36413374202630
H         4.08970459005424    6.02144297817359    2.40396067770270
H         5.23594479166188    6.91142322960359    3.42105444513004
H         9.68381246580858    6.20199319399124    4.40376223901542

