50
CSD_code = LILNAX | q = 0 | S = 0 | Stoichiometry = C22H25IrN2 | MND = 6
Ir        3.12906733869104    8.92518017624129    3.54701070746640
N         5.17803997320464    8.88724505356425    3.15059968839739
N         3.75666246649879    9.97603193130469    1.87936096289536
C         5.02103353399036    9.63427183155461    2.06625363638261
C         6.38224384489805    8.57851622999508    3.75548047228126
C         6.58290630282805    7.28486944805699    4.24674709550206
H         5.80679210504891    6.54865773748572    4.10011119916014
C         7.75349304456102    6.95200462417113    4.89612883196064
H         7.89369565414977    5.94538270425286    5.26350024661527
C         8.74877065956213    7.89941256974365    5.07769508109646
H         9.66459203269418    7.63713565909328    5.58591823695033
C         8.55442398297317    9.18852685742985    4.61089383143309
H         9.31900259859639    9.93784689957896    4.76053868279858
C         7.38574098229486    9.53118501608635    3.95965822628863
H         7.23148308935763   10.54737946686744    3.62768242532009
C         3.22592210083995   10.55227678210423    0.73447446892292
C         2.52677968359274   11.75672691723831    0.83262604071703
H         2.45750885807862   12.24147655762753    1.79542364563762
C         1.94167425390931   12.32010963883289   -0.28372850081284
H         1.40872766072697   13.25583945413742   -0.19382046556899
C         2.03561867433940   11.69324319561472   -1.51563663186301
H         1.57791673534072   12.13600053752885   -2.38759282228466
C         2.71185346788109   10.48885809077773   -1.62010563167648
H         2.77652715419277    9.98684857416699   -2.57509361863113
C         3.29950686897728    9.91763881054915   -0.50860223804825
H         3.80106721140309    8.96265634133183   -0.58751743205175
C         6.13608363678139   10.05348740200482    1.14905198797474
H         5.81373060322757    9.99714693048812    0.11222873574629
H         7.00885027629001    9.42182659566312    1.29746019109945
H         6.40948552634405   11.08885678044446    1.35264008412499
C         3.07127447470085    8.43025909221092    5.59790122127372
H         4.07094726782109    8.46309883875817    6.03080299005745
C         2.73117269985550    7.29214911544750    4.84665614442164
H         3.50036859082822    6.53162129842114    4.73236269198037
C         1.31427693690531    6.75385511375746    4.76663013701848
H         0.79052730202384    6.98723210128747    5.69377317363981
H         1.34793200420577    5.66702992657572    4.67949619574849
C         0.54979890767606    7.32892820502750    3.55748324608062
H         0.65386636332880    6.64707103164173    2.71219279495519
H        -0.51838906502604    7.40274624341236    3.78480870811543
C         1.07390105373483    8.68384730982520    3.12994677191855
H         0.86449582624495    8.91862589599381    2.08633289725173
C         1.23842258662061    9.76682098014842    4.01060197332446
H         1.17008772966604   10.76335009510386    3.57925006503009
C         0.86567997186487    9.69558727186309    5.47977448653093
H         0.03353707973932    9.00228874479657    5.60367584834394
H         0.52099305280991   10.67628800589851    5.81020439779965
C         2.05968245406022    9.26471002828403    6.35636269938373
H         2.57027673412291   10.15513244838472    6.72607864124010
H         1.70544770754504    8.70811943923185    7.22977777804978

