81
CSD_code = LILNUS | q = 0 | S = 0 | Stoichiometry = C22H53BFeN2P2 | MND = 6
Fe       10.85454146738454   12.18603036350738    6.50243462981830
H         9.81102031355894   11.27514162382811    5.72533298994009
H        11.81701232664292   13.02844212009408    7.21440463208044
P        12.48406273510993   11.70348804603206    5.17845570491590
P         9.35703446063776   13.08850540421701    7.76116693083783
N        10.49597883188958   13.85616119781950    5.17287482721051
N        11.22204991177034    9.81453811822575    8.22700012032891
C        11.09365276098817   10.76848407335851    7.55494694492081
C        11.24798724576848    8.58534079314903    8.91751487700617
C        12.65720444117811    7.99302640507472    8.80330898478893
H        12.89454695970785    7.79141252743473    7.76191498101276
H        12.71542346685996    7.06177042055992    9.36134570363393
H        13.39346501744000    8.68837040598044    9.19979392029055
C        10.21979146076186    7.64031253405735    8.28703591888791
H         9.22042185601878    8.06105653100029    8.36712073461240
H        10.23994823969468    6.67723457551445    8.79188242069035
H        10.44032518579521    7.49222908398938    7.23259252497771
C        10.90306308037713    8.84703035014893   10.38789930161801
H        11.60331858013865    9.55789957490209   10.82043649167401
H        10.94930211379425    7.91869976901209   10.95181372560068
H         9.89925729708589    9.25575912705064   10.47007903246114
C         7.65743120650511   12.34559592520416    8.02300802469381
H         7.26911031381209   12.31230560557427    6.99551993192824
C         7.75547806162400   10.90030898621831    8.49379637165372
H         8.48388915896746   10.37829594402616    7.87733425310896
H         6.79108608107031   10.40472508328926    8.38739049513973
H         8.05353696464717   10.83968468565811    9.53883610918895
C         6.70114048379413   13.15779511787146    8.89067627529627
H         6.96811223602785   13.08071076232139    9.94276034231844
H         5.68925918355825   12.77021128628441    8.77714262100866
H         6.69455587788446   14.20840590902450    8.60635881507831
C         9.82406779783234   13.76752763538077    9.44494755224733
H         8.92120986726121   14.15953448815892    9.92728620694940
C        10.85536799924481   14.88345333778828    9.32916377786651
H        11.68902862966860   14.53515307533123    8.72254578887706
H        11.23492529860574   15.14358108161398   10.31646413231575
H        10.43960094865272   15.78419864633354    8.88276197831869
C        10.41285318556457   12.62686339893529   10.26572277822084
H         9.68086888046810   11.84229908570486   10.43531092323951
H        10.76357468505800   12.98571690370955   11.23308359382604
H        11.25058347073314   12.20144595233132    9.71603609933604
C         8.85525030859996   14.64338284780977    6.86239629795547
H         7.95043290681127   14.43719878296287    6.28574588233805
H         8.64197270102996   15.46844737586581    7.54633265408551
C        10.01336165327807   15.01042906354320    5.94525143200302
H         9.72431108349601   15.82435297223170    5.26010261416282
H        10.84450271563647   15.35746670408508    6.56188825228601
C         9.50641698783942   13.52216876280955    4.15085428841170
H         9.83870884855232   12.66654077395418    3.57221096916856
H         9.33367598379113   14.37629967849337    3.48160181466763
H         8.57126899371729   13.22806583628321    4.61603704811127
C        11.75202511986881   14.24218721751568    4.51318109309822
H        12.40285608921872   14.66717819448247    5.27954203297420
H        11.55340144799172   15.01793151233593    3.75539158855594
C        12.46153729462652   13.04942776158479    3.88799568887458
H        13.46639965384877   13.33564470763160    3.56829520471948
H        11.91710257637558   12.68565573419829    3.01334873405805
C        12.47263943643222   10.21533727847484    4.04080073231636
H        11.57075882443366   10.40263290376255    3.44156003702201
C        13.67170370755002   10.07951388225861    3.10761344876588
H        13.90450590157326   11.02026583577911    2.61231405745382
H        13.45231827342873    9.33810719912814    2.34002639677179
H        14.55232273984199    9.74183885838633    3.65035600389009
C        12.21641879472021    8.93019707275324    4.81730239614142
H        13.10188618046718    8.61228299161225    5.36467563934487
H        11.93454510633606    8.12901727254205    4.13505353427035
H        11.39768511746522    9.09638967213916    5.51400714523861
C        14.25348549098111   11.79975227491883    5.78960612443724
H        14.92180765826779   11.48623848506909    4.97934496417789
C        14.61819468226426   13.21470092088874    6.22234888132880
H        14.68405995556893   13.89981144311594    5.37988769601401
H        15.58292432846150   13.21217827689505    6.72808420214812
H        13.86652678251234   13.57723455589591    6.92083617400897
C        14.38887760323208   10.86276569614528    6.98351559808722
H        13.65464248625987   11.15092772936064    7.73375934194887
H        15.38741546247563   10.92652823282769    7.41534670852082
H        14.20135416806450    9.83093625399568    6.70050263015754
B         8.89913490796391   10.41833244949244    5.07636224795550
H         9.30742993645994   10.34783289076851    3.96127674670894
H         8.95272759397287    9.39763722669679    5.67827829079003
H         7.85552241300247   10.98221671559885    5.16466393909189

