55
CSD_code = LILPOM | q = 1 | S = 0 | Stoichiometry = C18H33ClIrN2(1+) | MND = 8
Ir        3.05682973303972    7.71124789986882   17.05838644955578
Cl        5.38573634071413    7.53134344402101   17.15936253357266
N         3.14287107872173    6.08808933425908   15.62696438231088
H         2.21849137652420    5.69561724124754   15.44890412257771
C         4.18925406970249    5.10370692343399   15.36138814304221
H         5.06985990168257    5.22140081183907   15.98230099208935
C         3.92401063828363    6.18542349904022   14.39530655631828
H         3.41484623507850    5.96179518477483   13.46768509213702
H         4.61582778045298    7.01454990215995   14.35282150136870
C         3.79574517127155    3.67866764132175   15.06727607896001
H         2.89675626611884    3.65972554034492   14.44568845764704
H         3.57108517649410    3.16194848790975   16.00317425165127
C         4.92816696485499    2.95285019482647   14.34619618815906
H         4.64145668486565    1.92732163896446   14.13342970023330
H         5.82430202822489    2.93998078540525   14.96020781856760
H         5.16203048100172    3.44851062310603   13.40795743402197
N         3.01458219064487    6.18587151854395   18.60915166035547
H         2.07277668257269    5.83162597667892   18.77374072735316
C         4.02062121258981    5.19826750007969   18.99180684169948
H         4.92926004162061    5.24740380968151   18.40297062246276
C         3.74554123429079    6.35446572098449   19.86403932412718
H         4.45795781762525    7.16704563324584   19.87599812379108
H         3.19228106179701    6.21341624660018   20.78247376625133
C         3.57684322419234    3.80906849181196   19.37313409063195
H         3.36081316257795    3.23343551941680   18.47000548229275
H         2.66155926808338    3.85967240833816   19.96848536749903
C         4.66756743762298    3.10533553290058   20.17566690850328
H         4.34458059701552    2.10649024884150   20.45355140091150
H         4.89192419072397    3.66113613436086   21.08199651227903
H         5.57865551541018    3.02255893930647   19.58963917827204
C         1.05127110282309    8.70869904736743   17.04285630315379
C         1.82802293978223    9.22411701067562   18.13994587550387
C         2.99934682424073    9.84256902843978   17.61000605635043
C         2.95509013905091    9.70906252361486   16.17096441629640
C         1.73114010774564    9.04610636815823   15.83201597989377
C        -0.33489626009461    8.16456902824953   17.14254173111754
H        -0.48603686240247    7.62401655496341   18.07386481916087
H        -0.56286034152778    7.49815139834029   16.31411216836110
H        -1.05156813845360    8.98646926675728   17.11549070293730
C         1.39817102334145    9.25693443611635   19.56676009592549
H         0.72546442817491    8.43637954369293   19.80323996876961
H         0.86503700967319   10.19016083986200   19.75413575660226
H         2.25098085983339    9.21887371089408   20.24019857600760
C         3.99913798603532   10.65881921992898   18.35290795673360
H         5.00880038547002   10.44545925039905   18.00773352036088
H         3.94985085634615   10.47586054421346   19.42261901376862
H         3.80187161014972   11.71660228078938   18.17404460508729
C         3.89484360071013   10.38838236359060   15.23439228794225
H         4.92634260600944   10.23712991221479   15.54411979621289
H         3.69928927288999   11.46084489271061   15.24205332066562
H         3.77824943858257   10.02667341204663   14.21714830210952
C         1.20506305281189    8.85351556355460   14.45147209209456
H         0.51699281442234    8.01351342896061   14.39598614255288
H         2.00959079172623    8.70073536109267   13.73608820138882
H         0.66007118886576    9.75058218003811   14.15389260236943

