46
CSD_code = LILPAY | q = 0 | S = 0 | Stoichiometry = C18H24Cl2IrN | MND = 8
Ir        0.47610620051797    2.46697271855635    1.19172835560995
Cl       -0.80353451588238    0.51457361250483    1.08670928564135
Cl       -1.45195175283004    3.77125235917770    1.33146395265271
N         0.13751004098279    2.47108644195073   -0.93271912448041
H         0.69249500324878    1.72416904440114   -1.35034531206487
C         1.41131920028509    2.50605188644849    3.14390811968779
C         2.14265945827986    1.53108618925039    2.37398065022500
C         2.69373944840097    2.19308026269296    1.25100702771260
C         2.39081212296855    3.60522950791271    1.36433316412867
C         1.65500484991646    3.80111108967035    2.55836726368488
C         0.80816783790189    2.26581648018566    4.49114399981801
H         1.57155569673720    2.36483477851449    5.26608986931492
H         0.38580178686054    1.26554088184089    4.54633581817193
H         0.01760340424663    2.98533169283542    4.68971709435343
C         2.29974918154993    0.09420196580672    2.74391227438770
H         2.55730584903292    0.00891434266342    3.79865435000892
H         3.07915168897881   -0.37691064768071    2.15087358705159
H         1.36642944110470   -0.44482506933457    2.57777691787676
C         3.58828709114244    1.58392495005326    0.21924353225565
H         4.62224770824131    1.59653163479428    0.56923990304066
H         3.54581569129036    2.13909935768962   -0.71634942810181
H         3.30774635685482    0.55121241346493    0.02309739687515
C         2.93022145630216    4.67808372654494    0.47360676772836
H         3.92098217633097    4.98322368755873    0.81574647024301
H         2.28053991235006    5.54998840201064    0.48339367678180
H         3.02171962142471    4.33104547930131   -0.55409859580676
C         1.23392010528771    5.10146264891782    3.15825438379034
H         1.74962792683332    5.93244281226292    2.68471158538114
H         1.45837666241498    5.10704878461112    4.22366455965265
H         0.16049836746672    5.24906290321506    3.03698056467888
C         0.08732904676061    3.66412510788250   -1.77158374685976
H        -0.00782923586805    4.58427739748901   -1.20440508267249
C        -1.06719574812687    2.73693885020242   -1.69264528618043
H        -1.92361891036766    3.03719942758738   -1.10403659511819
H        -1.28526747401332    2.07881028205820   -2.52284240720389
C         0.97654912801850    3.74977394174911   -2.95256243784972
C         1.55359767328206    4.97262509401467   -3.28164756368545
H         1.32565044594962    5.84299788233892   -2.68406193988414
C         2.40855072354711    5.07958604194723   -4.36326787415259
H         2.84776921429895    6.03514210727976   -4.60743455314454
C         2.70346554789705    3.96422390651495   -5.12924069509910
H         3.37269251152024    4.04577681421036   -5.97216958869920
C         2.13439403325661    2.74304602669303   -4.81002474347876
H         2.35767983830178    1.86990558986727   -5.40484968606999
C         1.27691710108147    2.63476192202214   -3.73015484557026
H         0.83900808704365    1.67166527015878   -3.50570106417909

