89
CSD_code = LILPUT | q = 0 | S = 0 | Stoichiometry = C26H56N3P3Ru | MND = 5
Ru        0.48351239881796   11.70868896077566    4.49251865489985
P        -1.01458484102161   10.33269182600685    3.39667797319147
P        -0.87332102505711   13.53154894913342    4.28126074574417
P        -0.09488079066242   11.09755895238509    6.63567297671908
N         2.84115561970366   12.18272734551076    6.37025676331568
N         2.26060011002210   11.97325264621494    5.10355754996652
H         2.95915204967335   12.22046779065029    4.38014024379391
N         1.32939347894925   12.02575801825545    2.52655638666239
H         0.89949795352432   12.85670004105334    2.13338461065221
C         3.15341369051092   13.60600186868908    6.52053365292692
H         2.22133845027181   14.15739413097638    6.37298243198899
H         3.86682571512315   13.92581676780704    5.73700523204169
C         3.74093482685817   13.90718363875546    7.89431676224673
H         3.00983324297522   13.65867966721083    8.66702545239403
H         3.95790504089418   14.97512551797674    7.96473472355660
C         5.00622253501775   13.08610743887679    8.11598205385720
H         5.77697723276741   13.40309242395658    7.40914164765152
H         5.38961738686806   13.24186509726447    9.12627418731876
C         4.68277016348755   11.61394914261863    7.88876564597940
H         3.96359690396591   11.27909757708113    8.63993377286322
H         5.58324659508807   11.00376982241921    7.97997796487254
C         4.08107508510508   11.41974871868883    6.50197343125501
H         4.81095877840373   11.72650226784371    5.72872276781280
H         3.85349217792093   10.36316693445218    6.33861877503747
C         2.65563181060363   11.99043977406378    2.22160746753932
C         3.35880676289862   10.75496276332130    2.25853404071390
C         4.69274893288304   10.70262036056659    1.90790246817121
H         5.21270675548484    9.75418853071444    1.93616278332105
C         5.37743211830894   11.83302442967739    1.49638977713130
H         6.41832945900063   11.77200359457558    1.21229068496873
C         4.70772530038701   13.04236001543039    1.44694682773722
H         5.24540390411336   13.92140878832325    1.12122016916904
C         3.38097952243079   13.14943576171786    1.81944009010079
C         2.62341119669743    9.48053853537446    2.60278900840931
H         1.59200968112714    9.76854269961577    2.84567488805621
C         2.60598362622553    8.53841629210645    1.39604654895769
H         2.24157656771504    9.05834723657236    0.51187269617403
H         1.96074188418189    7.68054016615034    1.58462113997460
H         3.60719619404169    8.17053041354039    1.18098671385328
C         3.19798021810116    8.77612651960678    3.83181785416043
H         4.27527509364928    8.64890737371042    3.75298651047826
H         2.74664926733814    7.79130537945604    3.95547010399026
H         2.97655965934912    9.36840194164710    4.71837337618794
C         2.69176447236718   14.49834092594908    1.81524616092254
H         1.88307540778236   14.46101852947941    2.55967464880582
C         3.60867496265934   15.65044947481426    2.22878108432228
H         4.13642451130248   15.40817512814888    3.14935164625157
H         3.01926719233168   16.55163006466439    2.39602483667441
H         4.34205268241247   15.87155027078998    1.45737247675720
C         2.07832684956666   14.78175119037557    0.43988018049297
H         2.86506740129102   14.84239034986208   -0.30956035462385
H         1.53169684980728   15.72495266072763    0.44459807525345
H         1.39799645262816   13.98341128146230    0.14699606454916
C        -2.86078572231640   10.41781361110905    3.52542582784165
H        -3.20089823082142   11.35214295893335    3.08072479877383
H        -3.17299280187028   10.39118224788086    4.56635036186780
H        -3.31381607545987    9.58252412195755    2.99192741216420
C        -0.93018334976642   10.29092457169520    1.56400389298635
H        -1.60767637546618    9.53005726392847    1.17520939555887
H         0.08858885804541   10.08708650312636    1.24954846937475
H        -1.21484599677743   11.26825191989382    1.17881633228848
C        -0.83415291957347    8.52862160192358    3.75339095639178
H        -1.46023409465850    7.94002481553829    3.08244230025758
H        -1.12857451809318    8.33444704559887    4.78406415119005
H         0.20607917537738    8.23528786960034    3.63147666778846
C        -0.06506652639262   15.06426317179157    4.91785697387920
H        -0.67451127745086   15.94480336836041    4.71312825337604
H         0.91162218739507   15.17765273005997    4.44997260339932
H         0.07367619345723   14.95850091603191    5.99319802086596
C        -1.45036885124862   14.18495426979611    2.65097825440208
H        -2.00601556382354   13.41040298752250    2.12479333811402
H        -0.59602902377601   14.47528163594888    2.04284085474212
H        -2.09094302013806   15.05371349306012    2.80260390430443
C        -2.46177370830939   13.70636775946506    5.20709848370143
H        -2.27421733656078   13.50877811434913    6.26085762797305
H        -3.19031941977403   12.98823752939052    4.83859329311533
H        -2.85597749151361   14.71599020254568    5.09360056662008
C         0.10380230585727   12.26579317483192    8.03926477376192
H        -0.12695948336844   11.76890356948841    8.98177649267904
H        -0.55868489444992   13.11954373757456    7.90604732604699
H         1.13364031871117   12.60800364026430    8.04121009151712
C        -1.78077259699945   10.47406909959197    7.06316160973634
H        -1.99351024881512    9.57745747761623    6.48460056092834
H        -2.52894053963153   11.22812105993415    6.82900357759169
H        -1.83134886826777   10.23518916407053    8.12558777867641
C         0.87568172706616    9.68280193162263    7.28845504438979
H         0.47805999004386    9.34998129485228    8.24796833738627
H         1.90524006340508   10.00784588487943    7.40907433638490
H         0.84288060007788    8.86361325872113    6.57013495469099

