93
CSD_code = LILPAA | q = 0 | S = 0 | Stoichiometry = C28H59BFeN2P2 | MND = 6
Fe       10.92434510967777    9.58311707979893   18.59362707178398
H        11.12236730134714   11.02387150014916   18.43135753280849
H        10.70939088473074    8.02109382595337   18.77628257603344
P        10.35873961262951   10.04335174272003   20.61963942667182
P        11.83041159901093    9.38815287146898   16.64992841274262
N        12.94151837473399    9.47131009313460   19.35803720514239
N         8.15273319456544    9.54647747009038   17.57068076554806
C        11.96509201246757   10.05341232340422   21.56637658639345
H        11.98291120209053   10.81527514783929   22.34939684549997
H        12.09620080921044    9.07684251383494   22.03857672927277
C        13.06867291541078   10.31978618684400   20.55230677722672
H        12.98972933916853   11.35720075589905   20.22224452022558
H        14.06099264982067   10.17455708511241   21.01004182700355
C        13.88342782745125    9.96809859490818   18.34392199840610
H        14.91928043268512    9.81210711613963   18.68748518045070
H        13.71162590974719   11.04114480119120   18.24126217308249
C        13.66323246130486    9.31490270206224   16.98666112140655
H        13.97492772862424    8.26784392901172   17.00186725722602
H        14.24738997307701    9.83251181539546   16.22197924806545
C        13.30247967898576    8.09960236180392   19.70958129808107
H        12.61741649704559    7.71123966743517   20.45607369963365
H        14.33134183950202    8.05299360120756   20.09230172814613
H        13.20525307738476    7.45269590731894   18.84382846221850
C         9.39142914463589    8.86669046032969   21.70973370259629
H        10.04210011295220    7.98118972532767   21.71002451157021
C         9.16761897313683    9.32164126153858   23.14860084213770
H        10.08297713467119    9.70300050115329   23.59706788043211
H         8.82342150566895    8.47861252892942   23.74679236295632
H         8.40409397548841   10.09532796528162   23.19889709169792
C         8.08750378435166    8.44481070010958   21.04496697678114
H         7.34367542862403    9.23842152966140   21.08761566250503
H         7.67699854790486    7.56870519948506   21.54585925952438
H         8.28748354147315    8.18917147039893   20.00668841680666
C         9.65929325880572   11.73186682179960   21.03582399640880
H         9.39541930852918   11.75045377926690   22.09950522021035
C         8.41990791682978   11.94960667494324   20.17635542344610
H         8.70103211959542   11.84172807218566   19.13021574218537
H         8.00695584364975   12.94528737699295   20.33639927855355
H         7.64903403419690   11.21717496011350   20.39844723277121
C        10.66558254987529   12.83959358248523   20.74835495382233
H        11.50700318767925   12.82192250175995   21.43764844875783
H        10.18287859570520   13.81229033220117   20.83402004698271
H        11.03368384238243   12.72903290011159   19.73021422655128
C        11.66931596569528    7.84917646625059   15.59397286394715
H        12.09731488874767    7.08157825742661   16.25382077958268
C        12.44068672467142    7.86080000719810   14.27793112709281
H        11.95093556923973    8.49829584751360   13.54462153771469
H        12.47565076720899    6.85195342824853   13.86806010080848
H        13.46386078890941    8.20572973468193   14.41498208370893
C        10.20773147260458    7.47376755392548   15.38658675885379
H         9.68954998329287    7.53275166719632   16.34122507217761
H        10.13196602728314    6.45335985151996   15.01234090085327
H         9.72381877690111    8.13416088771580   14.66944025300427
C        11.73346896752120   10.79978401423858   15.42032013996970
H        12.23543945199716   10.49381093859587   14.49516353842223
C        12.40370404996126   12.05643895981887   15.96246799293052
H        12.00385562973482   12.27362578491517   16.95100048443970
H        12.18892290052805   12.90330703921098   15.31200110537554
H        13.48442666590330   11.95120078791892   16.02885956158803
C        10.26205641969915   11.09365186889091   15.15497640513239
H         9.76513655884410   10.24539787011455   14.69264162389564
H        10.15126256539808   11.95691170517116   14.49919866255036
H         9.77298431032274   11.30052960651807   16.10527173248117
C         9.25494107797635    9.58945503590668   17.97296623706629
C         6.84301029312571    9.29858350850279   17.12273740401239
C         5.85183485597498   10.09509055531614   17.98053645828254
H         6.08833596378515   11.15972755411348   17.91832887189934
H         5.95070233423621    9.78695898762778   19.02315491357149
C         4.42977960459857    9.83329169962231   17.48727516856794
H         3.72505080444523   10.40449840196806   18.10245954100711
C         4.30404070604304   10.27147340059330   16.02872706401202
H         3.28438503221096   10.10068787297504   15.67625636661276
H         4.51428091015850   11.33999235930745   15.94152277549606
C         5.28936716720598    9.47542168312184   15.17398187528362
H         5.20215774595652    9.78960344604303   14.12753174011518
C         6.71467299158867    9.73599911765473   15.65821744623953
H         6.96030818299068   10.79676198564440   15.57085046720934
H         7.42675009030791    9.17330444634043   15.05159388458219
C         6.52757250030552    7.80198579210023   17.23692799727037
H         6.63669864160263    7.48485519272017   18.27594421743524
H         7.24371404706649    7.23237447701996   16.64142507585654
C         5.10301121738265    7.54833863302936   16.74690599436896
H         4.88098045169992    6.47885576017767   16.82985231097832
C         4.97750038682819    7.98360124345778   15.28725658664833
H         3.96529443418975    7.78744812991386   14.92618715332108
H         5.67141033940933    7.41056481095812   14.66827664279571
C         4.11674530524347    8.34191704947665   17.60320398670036
H         3.09484435580623    8.14995054005703   17.26809747188183
H         4.19284922125678    8.02587488058738   18.64594755579069
B        10.44947824162347    6.64509559279154   18.91609165894410
H         9.33344573633695    6.50111667520632   18.53923636819830
H        10.60129914624055    6.43488561460167   20.07713010262490
H        11.26707649311990    6.12163583929434   18.22890421892806

