84
CSD_code = LILQAA | q = 0 | S = 0 | Stoichiometry = C28H49N2OP3Ru | MND = 5
Ru        4.89173017058417    3.77526738413598    0.63073121888468
P         4.56758999429749    5.24350320760681    2.33848734140018
P         3.83715465853951    1.90225451694987    1.41842071183809
P         3.16387140261000    4.41787272535647   -0.72105226842107
O         5.78241670545162    2.53797912089593   -0.80384144753181
N         8.06715036290348    2.92454756673499   -1.08561134863845
N         6.76606759628930    4.03529235824247    0.47873870462733
C         8.70562150054050    2.95753122791461    4.08128106310521
H         9.77916866747036    2.95440656311377    4.25468178454836
H         8.29963460254361    2.04007476971746    4.50458185955665
H         8.27537116361860    3.80265956607121    4.61595254814935
C         5.25325259363216    6.93783330409982    2.20512908510288
H         6.32931796066337    6.86208032304552    2.05022204019385
H         5.04876066319456    7.50605261314319    3.11283560508788
H         4.80622114879756    7.43882113542074    1.34798662978868
C         5.29996290037559    4.75497660981143    3.94599811964360
H         5.06076364432258    5.48595877123531    4.71843268598448
H         6.37904372658715    4.69649997820470    3.81722686644358
H         4.92129484131142    3.77513051641077    4.23447665912488
C         2.85366533081308    5.63731848233853    2.87897911887163
H         2.33968768885019    4.70959993882723    3.12418382682243
H         2.32468515782433    6.12155872975267    2.05988902550293
H         2.86575332885910    6.29572718597942    3.74682698638074
C         3.35828450068245    0.70341588500375    0.11952231371035
H         3.18658131126179   -0.28275122500568    0.55150322191112
H         4.17855850432823    0.66165283592461   -0.59665133909808
H         2.45806003359446    1.04347668886736   -0.39001538629316
C         5.09961787077134    0.89551625393622    2.29338246582204
H         5.42398930338075    1.41226854139086    3.19679773059095
H         5.95312740940773    0.78115180632612    1.62322609041634
H         4.70440843024109   -0.08635538033232    2.55603145378591
C         2.42245631852700    1.72738092949612    2.58551751054218
H         2.22481936824544    0.67349150650580    2.77695444210088
H         1.53687446782271    2.19310134052449    2.15755942429728
H         2.66536957180655    2.22637811643202    3.52208587616776
C         1.35701714304781    4.11224610845753   -0.51054941182994
H         1.17817426188582    3.04052321315957   -0.44684039912716
H         0.80066360921281    4.52568935220033   -1.35112983544415
H         1.01962595096217    4.57649376808085    0.41452539123176
C         3.41765288111354    3.74137758941446   -2.40108408896177
H         3.41105761092910    2.65364684771852   -2.35225577112524
H         4.40200844291787    4.06014779580970   -2.74507714270443
H         2.64825941839806    4.09477639826185   -3.08834167370514
C         3.10574333103664    6.21459512368408   -1.11889754704549
H         2.39439193535559    6.40442174035474   -1.92270853550489
H         4.09935284183986    6.53714985186751   -1.42772391811327
H         2.81451300083930    6.77910563795639   -0.23455414903253
C         6.90397946381676    3.12204883671593   -0.55634984718688
C         8.27697476678060    2.11298293894810   -2.17538993134069
C         9.55225241433546    1.55448118031218   -2.32142060741952
H        10.28577955102539    1.73920143028480   -1.55040582578835
C         9.85874075067958    0.78262968209471   -3.42155263402434
H        10.84698477641983    0.35302148242682   -3.51600711537057
C         8.91202623535509    0.55978142664674   -4.40988060979995
H         9.15668522021899   -0.04182558212931   -5.27391274714162
C         7.65149853814502    1.11965345761418   -4.28324902389646
H         6.90923579934563    0.95593269417123   -5.05389447006581
C         7.33078377086195    1.88539902619415   -3.18103239159618
H         6.34591356409474    2.31951938037332   -3.08679509503972
C         7.84515081444022    4.81190065367609    0.90103202903397
C         8.10893800400988    6.04235664269231    0.27125923693671
C         9.17233077044822    6.80893488706961    0.72118716880479
H         9.39592636557417    7.74840221596421    0.23898767323220
C         9.96363857909526    6.38396203090185    1.77147753333101
H        10.79191258006087    6.99233242176223    2.10529908582209
C         9.70396231187973    5.17217019606670    2.38346693998108
H        10.33937200887467    4.84177134301036    3.19099255423976
C         8.65304714712978    4.37258966073243    1.96443230780953
C         8.39463018502297    3.01943188830997    2.58483582944743
H         7.32791840949434    2.79209849587073    2.44263964133580
C         9.21360205147278    1.96141748514211    1.83872289545653
H         8.99787806044882    2.00445647317279    0.77341030611656
H         8.98137764612986    0.96438491104547    2.21082425279771
H        10.27721716490552    2.14626136756519    1.97870736345204
C         7.26552250080697    6.48602493575232   -0.90138396313746
H         6.28935643409262    5.97696492799719   -0.81782183802655
C         7.01553852328876    7.99487000331936   -0.93659435746600
H         6.25182016092149    8.22716328335835   -1.67767891559176
H         7.91861500011860    8.53168528700807   -1.21720825211186
H         6.68211890395998    8.36432614688443    0.03051346579011
C         7.93275635869277    6.03947142623047   -2.20592354383375
H         8.88464895089867    6.55209530290572   -2.33244391241644
H         7.29775064306562    6.26954902997143   -3.06057046332290
H         8.12562224657724    4.96980570897697   -2.18610627818140

