37
CSD_code = LILRED | q = 1 | S = 0 | Stoichiometry = C10H20AuN2S4(1+) | MND = 4
Au        2.10667327607832   15.98865296693388   15.30995696433781
S         2.14278406642535   14.01651115172610   13.97963101174200
S         3.36774466626727   16.49968016955413   13.35777281915894
C         3.09500416277704   14.88402394726474   12.84695241877590
N         3.56966978104209   14.36778576366648   11.74515638023255
C         3.24604031430939   12.99606184515430   11.38054054007268
H         3.31705899418568   12.37849283740293   12.28153187434103
H         3.99483602428686   12.65912973554421   10.66341754242512
C         1.84782949629877   12.85953189724894   10.78599777009035
H         1.66546165799065   11.81473968372937   10.55258565676518
H         1.74736625247442   13.43904339438659    9.87348161743893
H         1.09169945677756   13.18682433471494   11.49406841377823
C         4.40117496345403   15.15577373002557   10.85108639440424
H         5.21529567656322   14.51734899952674   10.50103877882964
H         4.82929420183143   15.98071933395979   11.42692177658419
C         3.61985994917041   15.71151262630536    9.66639649729007
H         4.26636212837274   16.37001478012078    9.09382525683105
H         2.76226321847711   16.28465649660100   10.00894266920504
H         3.27882002711552   14.91626894481627    9.00999461409983
S         2.07001511720311   17.96042937074092   16.63963887017943
C         1.11799014213100   17.09279143209699   17.77238904010850
S         0.84535243490368   15.47707818092614   17.26166700255638
N         0.64341637729532   17.60900758794562   18.87424003200737
C         0.96696598058496   18.98078400300079   19.23878370022166
H         0.89578138683074   19.59833438266745   18.33779421311304
H         0.21821928464981   19.31765133872374   19.95598481427617
C         2.36522706044961   19.11753225663529   19.83317711749902
H         2.54748391873837   20.16236394141830   20.06650214682187
H         2.46586294137071   18.53810244808186   20.74572217833563
H         3.12133488231892   18.79030055062986   19.12505583407114
C        -0.18789355480083   16.82096961117403   19.76846267636371
H        -1.00205615085996   17.45932309950356   20.11854564806129
H        -0.61597418811441   15.99593073054492   19.19273629020666
C         0.59357245216935   16.26542016240908   20.95314209227435
H        -0.05283352536683   15.60694629534596   21.52584979014781
H         1.45117728717195   15.69229815288442   20.61059078865195
H         0.93461983942512   17.06076381658901   21.60941876869862

