66
CSD_code = LILSUV | q = 0 | S = 0 | Stoichiometry = C23H40N2Zr | MND = 11
Zr        3.71657366216171    2.32084143893249    3.29840422729076
N         4.16846551345952    4.46234772382913    3.66652652750201
N         2.76217598584941    3.40133996818362    5.01444445523538
C         3.50712962637450    4.47846886774552    4.81576173874805
C         3.63524221222147    5.60053986350550    5.82923073822232
H         3.50711233924956    5.21856079614563    6.83990296595174
H         2.88193287501755    6.36573530162328    5.65331565169813
H         4.61477713552334    6.06972593536783    5.76126362993875
C         4.91750384615335    5.60818221947911    3.18905872398729
H         5.58974384922797    6.00636314560889    3.97277970607401
C         5.78309071883985    5.16316589212181    2.00769270040326
H         6.26349206452351    4.21443611575620    2.23896281513570
H         6.54261960521112    5.91202325984690    1.79046951994422
H         5.15841848371163    5.03383176561995    1.12740179875067
C         3.97988828245620    6.73505369814991    2.73027137263900
H         3.25755843125654    6.32862198489882    2.02493782709512
H         4.54954929795690    7.52304220147789    2.24255119610197
H         3.43758380510861    7.16761599027350    3.56614428643796
C         1.93998194108072    3.22925491548727    6.19814253910333
H         2.54416000872270    3.34616039420264    7.11840171749589
C         1.38036979966478    1.80303219673141    6.17639674918817
H         0.55233687147540    1.74473373200640    5.47394190472487
H         1.01864458516136    1.51929416956075    7.16310867279689
H         2.15611964849167    1.10938628080834    5.85472699486776
C         0.76736098797339    4.22198950483214    6.25975624078770
H         0.27460914696222    4.25807375146699    5.29131724212883
H         1.09504733328700    5.22502514193878    6.51431637045067
H         0.04985759019069    3.89820537031975    7.01083625176394
C         5.06504918424287    0.26034494593848    3.06788624343282
C         6.00352373618938    1.32757992980017    3.00559927733557
C         6.03160714647186    1.94988784131500    4.28177785776708
C         5.12002795232706    1.26486827191435    5.12996851176061
C         4.52330134210630    0.21427058941184    4.38260253963601
C         4.86553555229951   -0.79139840240616    2.00978693914321
H         5.03975803514511   -0.38526891827674    1.01427250634664
H         3.85751835132048   -1.20361136362481    2.04921412273267
H         5.56762113892411   -1.61683238787202    2.16035096250388
C         6.94254949806376    1.55411757909234    1.84794376715690
H         7.45927335352865    0.62297514454324    1.60711697686625
H         7.70146007218455    2.29434687606744    2.09415933850468
H         6.41255890302641    1.88462428277661    0.95222045149796
C         6.98844904075023    3.00002014192291    4.77945847009466
H         6.45984007030077    3.85386087669526    5.20876402109595
H         7.63556071213592    3.36445283190391    3.98430224150596
H         7.62698683488620    2.58174533203406    5.56209053514459
C         5.03595910584048    1.50595592342253    6.61308756966275
H         5.95011473286295    1.15529666302037    7.10125721313379
H         4.19703415895118    0.98034533606618    7.06417460727717
H         4.93546301297692    2.56982216793881    6.83448048743058
C         3.67484075787946   -0.91986103684730    4.90038581244442
H         2.69982590689530   -0.95784145639305    4.40865863788111
H         3.52131509168302   -0.83936709199845    5.97493436695800
H         4.17949394015447   -1.86992118706276    4.71197195826739
C         1.80771221270546    1.24028226907879    2.75458307347769
H         2.05984418728087    0.50262210740064    1.97453143768336
H         0.98866429333001    0.84359202727426    3.36338981804092
C         1.47073187034994    2.56126917634965    2.17237078684443
C         2.37654217414048    3.18919048737368    1.35895726587146
H         2.14556696706133    4.17919813164184    0.95998000489632
C         3.68056612220691    2.56576021135484    1.05165051350110
H         4.27168178211215    3.17248434951985    0.35893515991508
H         3.55839527366456    1.55693957164922    0.62224126881377
C         0.14121431325439    3.20148370792573    2.48801385859237
H         0.19311534607238    4.28806043986769    2.40907082585459
H        -0.19313596566639    2.93724167304925    3.49033926775152
H        -0.62081185497412    2.85051133220914    1.78590673871865

