66
CSD_code = LILTAC | q = 0 | S = 0 | Stoichiometry = C23H40N2Zr | MND = 11
Zr        1.55982648143450    2.77372130263655    5.69066520650553
C         0.00833678867923    4.15972359927888    6.59244217172572
H        -0.62915376608342    4.10602805590796    7.47895037836434
H        -0.59020044864383    4.53232656972260    5.74377647899456
C         1.20838880514945    4.98354457511363    6.81858923695327
H         1.41655825744935    5.36890495507065    7.81838581597268
C         2.08994665713178    5.23265693983658    5.80122918427794
H         2.97847789165772    5.83477279745949    5.99392338220212
C         1.88829973313168    4.67039988239569    4.44916123943830
H         0.85461661811558    4.86561744181368    4.09697304644100
C         2.84876051464319    5.24963992402067    3.40887951595450
H         3.88398009566347    5.20526789189361    3.74688125891488
H         2.62288599605400    6.30483490595125    3.20636811842397
H         2.77992108349189    4.72265047422437    2.45505570088881
C        -0.08685858895572    1.90160650536562    4.07972791728695
C        -0.37273048674639    1.20724635009954    5.28885080692859
C         0.72834679291147    0.35520451542135    5.56710759782446
C         1.68573564283800    0.51520674875383    4.53165736907780
C         1.18925582092051    1.47631455637386    3.60914621864759
C        -1.07507154344619    2.73335352027995    3.30632721810780
H        -0.57160921830350    3.45889956773883    2.66792008457907
H        -1.75105776196381    3.26581024997328    3.97498583712362
H        -1.68277522694562    2.09245818655114    2.66094755392231
C        -1.71880387243193    1.22205339253195    5.96757414970086
H        -2.50085107717013    1.01012669244143    5.23567420812095
H        -1.93791537830117    2.19045516342657    6.42139405393257
H        -1.77800901007694    0.45842818686974    6.74068538896523
C         0.83329555003945   -0.71151465886588    6.62353996545120
H        -0.05123481631567   -0.74065428586148    7.25609679408575
H         1.70800249407885   -0.56119594053549    7.25949438126316
H         0.93352336926094   -1.69290832335880    6.15244983019350
C         2.88832517631179   -0.37460297391096    4.37375030312389
H         2.58461303124655   -1.42222285859141    4.43723909488596
H         3.62942625054376   -0.19949074529661    5.15720639206480
H         3.35937704115289   -0.22784701035396    3.40443377454198
C         1.72875103129411    1.77419330686916    2.23427376765008
H         1.20224640645321    1.16966504468180    1.49007604105922
H         2.78963013712496    1.54479396397340    2.15898969072290
H         1.58132146036679    2.82130182653613    1.97014543433021
N         2.24363142561778    2.14280254024062    7.73378616957541
N         3.71233605570198    2.39299735414765    6.09073311844266
C         3.50231148271418    2.01733385994342    7.34571699846039
C         4.60770375307541    1.44613314551071    8.21607270237081
H         5.26828382622149    2.23609903332647    8.56840983057617
H         5.20501816315379    0.74020361289331    7.64008648776697
H         4.20404019523851    0.92262448096189    9.07728474956368
C         1.82357902097127    1.85580284328841    9.09350339265528
H         2.18392387618754    0.86078193272998    9.41603458213440
C         0.29314146822992    1.83939132906867    9.14336895382901
H        -0.08398818051072    2.85802503093897    9.17874014320348
H        -0.05137223596088    1.31118578301302   10.03047227687197
H        -0.09960425519237    1.35300405466383    8.25348033719200
C         2.34443261446322    2.91367258602018   10.07850593009666
H         3.42744315271102    2.88941238017674   10.16020943061524
H         1.91794725686149    2.74797756663703   11.06554458945216
H         2.05044483253685    3.90025577000441    9.72581573305919
C         5.05207089547256    2.52559694470918    5.54955476942914
H         5.72232648403933    1.72654989760543    5.91007867169379
C         4.96943093386398    2.43826032004568    4.02183939139670
H         4.97285889585577    1.40162060364441    3.69593635238752
H         5.81698271627839    2.94161795012519    3.56181285323361
H         4.04030600102822    2.91249205614089    3.70065823732265
C         5.65600696503727    3.87430855261399    5.97251340911157
H         5.03777719532352    4.68251444261854    5.58984385915849
H         6.66693760269252    3.97969764644800    5.58430589146626
H         5.68935192662925    3.95786798605088    7.05641653028934

