94
CSD_code = LILVUA | q = 0 | S = 0 | Stoichiometry = C47H40N2O2P2Ru | MND = 6
Ru       17.56984994082892   12.58940535045006   11.30012373436879
P        16.63602055210560   10.53281701585529   10.82472211541893
P        18.66662919448309   14.54023313741396   11.84970421840379
O        16.21279090353298   10.49491985733781   15.88100753575855
O        17.42373190463114   13.40522134114863    8.42540583005293
N        19.42114284922482   11.62760402441471   11.40045669712483
N        17.60267682620593   12.04107427982014   13.32157238026822
C        20.47528810867102   11.29089979713068   10.66566486570831
H        20.54246230448023   11.53062129537408    9.61944151696242
C        21.42350699969960   10.61298245237888   11.43846565281308
H        22.36478821275291   10.23178588867921   11.09004483491432
C        20.90920047224835   10.53536729153858   12.72003908786012
H        21.35769142885129   10.08368145198014   13.58548852137296
C        19.65873818383220   11.17438525484312   12.67664603658617
C        18.67893794161241   11.40920837800031   13.65800016044430
H        18.84207427476051   11.05803661935084   14.67708068760039
C        16.55050785270376   12.31291099383482   14.28453964463290
H        15.61260476545894   11.93174968553278   13.85957450390074
H        16.45936533468116   13.40357828741324   14.37847782720771
C        16.73327633015134   11.71816864897638   15.64133733689869
C        16.49684641154994   10.18000549206778   17.15454813680502
H        16.15164272952986    9.23135410644205   17.51425241886095
C        17.19463688926155   11.18193473984253   17.75234792060516
H        17.55313950811639   11.20800112904653   18.76093158314539
C        17.34868714670224   12.18686500104650   16.76644576368075
H        17.84513495530640   13.12907795879618   16.87435486577004
C        17.52312268741976   13.06981443194544    9.53062232512330
C        16.12271819511536    9.52144087038991   12.24966682477287
C        14.78957849505105    9.47476392701416   12.64535918008399
H        14.04705522784110   10.02577941970668   12.08351615990626
C        14.41693245939915    8.72136314201009   13.74412369700938
H        13.37854438947703    8.68085102434636   14.03977021397032
C        15.37013885569832    8.02028717187216   14.46292104416175
H        15.07456483237406    7.42268211270103   15.31276175775567
C        16.70494034294290    8.09662092421299   14.09931599021839
H        17.45403808090712    7.56793304450015   14.67165150645135
C        17.08347954816222    8.85009406109666   13.00417138987665
H        18.12707822006097    8.91487825119450   12.72265718234475
C        15.14918352728191   10.43846280142091    9.76391464850435
C        14.63856231967828    9.19788784811692    9.38764993527748
H        15.11250848450061    8.29207259871601    9.73996623936282
C        13.52903779082706    9.12490188554056    8.56797327744316
H        13.13581411610966    8.16051490253697    8.28038537111444
C        12.92316144908868   10.28575430813698    8.11186808754516
H        12.05818809580644   10.22472374017909    7.46771253536526
C        13.42768789243156   11.52026677074002    8.48256880149039
H        12.95672073431173   12.42549459168418    8.12836757202033
C        14.53737246740064   11.59806565649438    9.30704102165734
H        14.93691925623246   12.55629190859296    9.61356701218708
C        17.67639450696936    9.36765218536561    9.86370766313482
C        17.78685474096225    8.00375014603584   10.11071663033761
H        17.26769633957216    7.55058093666084   10.94332083468683
C        18.56794034093199    7.20974515020987    9.28889286444580
H        18.65230287766074    6.15218309562476    9.49484671774356
C        19.23530284807616    7.76011657655170    8.20860448542726
H        19.84708620303638    7.13543620351772    7.57449361816053
C        19.10927027193593    9.11312689717363    7.94101605945754
H        19.61729346964493    9.54745149856683    7.09225623982928
C        18.33393010636954    9.90851564143545    8.76246555327031
H        18.22688183885158   10.96488983332526    8.55583748107593
C        18.03509991497883   16.14278942819108   11.23570579879082
C        16.86129139509439   16.19801477964188   10.49619183094099
H        16.31227735736244   15.28248942223951   10.31695758639409
C        16.40244256259634   17.41060631568811   10.01002823376539
H        15.48968644508158   17.44777227392535    9.43377688834338
C        17.11191600890959   18.57248121039402   10.26067627512824
H        16.75515087289967   19.51840260860623    9.88020390499148
C        18.28321662086556   18.52267418124331   11.00122302202431
H        18.83756558875127   19.42892095256747   11.19818194270702
C        18.74649264178352   17.31462071721428   11.48510585864370
H        19.66217219766808   17.27582229454595   12.05912397634434
C        20.38531052273895   14.72032821827561   11.23582179223375
C        20.58998086223779   14.37869025763392    9.90198254711271
H        19.75573128090965   14.00562935089001    9.32321845591951
C        21.83569980155596   14.51520955545797    9.32041132396955
H        21.98085297942030   14.24228754755413    8.28525930830671
C        22.89696226149534   14.99986179112761   10.06672977428477
H        23.87499619075415   15.09999991554685    9.61952488716737
C        22.69753095779018   15.36255694609328   11.38733073769752
H        23.51896419834503   15.75373660678851   11.97059244088498
C        21.44920292356736   15.23158320373003   11.97082189877281
H        21.31488082203104   15.53070356387797   13.00067092089383
C        18.84412628639510   14.88499830482746   13.62916598769693
C        17.97659643487001   15.76230251266589   14.27283025973165
H        17.21268525158613   16.27163952693164   13.70090918268641
C        18.09777563750241   15.98805591108259   15.63255586764329
H        17.42827393746269   16.67857478352241   16.12463607521588
C        19.07678406646393   15.33321305289870   16.36205434949677
H        19.17884526638345   15.52131763956745   17.42131978845241
C        19.91854957206049   14.42793719114582   15.73357148548824
H        20.67006210700868   13.90106816287278   16.30419020458682
C        19.79744330685712   14.19503089345935   14.37634081594721
H        20.44963035102625   13.48314514695269   13.88694267961551
H        16.18673034233017   13.22595269584965   11.55706009998649

