43
CSD_code = LILVIM | q = 0 | S = 0 | Stoichiometry = C22H17BrN2Ni | MND = 4
Br        9.97001959311367    2.65845257158077    3.58718993964356
Ni        8.07140673589263    2.90853594509504    2.31625435987625
N         8.54211631303779    4.57115360616596    1.44401185777533
N         7.24979574449033    1.46436654336608    3.19829163650040
C         6.68574581186862    2.82997904128183    0.98077277344592
C         5.79005532736478    1.81776002944592    0.64686932231036
H         5.86809396478736    0.83269166440877    1.09276033793374
C         4.77425097560303    2.02999282515022   -0.27269505147224
H         4.09947587867392    1.22086130229722   -0.51629379386573
C         4.61461470669507    3.26771961919123   -0.87256648993575
H         3.80973997008948    3.43184693441693   -1.57431048213191
C         5.49905992000090    4.28542352720775   -0.58124061681833
H         5.38759476280216    5.24467657699520   -1.06551843722064
C         6.53418907616388    4.07093991968319    0.32617501445499
C         7.56727083623594    5.04687823919093    0.63556467830427
C         7.61371576234075    6.34985108089750    0.14457255105861
H         6.81429379173341    6.71466826747809   -0.47987930082711
C         8.68059336597635    7.16641706741650    0.46279540213464
H         8.72809170880419    8.17908243491168    0.09044899398504
C         9.68997918210098    6.65399236360025    1.26181879383697
H        10.55303006921997    7.24365128714218    1.52501870055091
C         9.57555358021876    5.35730089450095    1.73164945662455
H        10.35372512411006    4.94476808290133    2.35970694752406
C         7.73991872379040    0.22779243175098    3.22193765275975
H         8.65360294333615    0.05506317008791    2.66656678844039
C         7.13393614879115   -0.79846522966924    3.92279706520827
H         7.56848482762432   -1.78483643920926    3.91206534884173
C         5.97394899692592   -0.53090736696505    4.63385928958027
H         5.47883610894474   -1.30741020146100    5.19684418157631
C         5.46364211591425    0.75465236371130    4.60796328937288
H         4.56857766917050    1.01414590681997    5.15164027415717
C         6.12466682924091    1.73522023925221    3.87878361646640
C         5.61631658692655    3.11459366482627    3.76994726538577
C         6.48171847494931    4.19251154297964    3.98437240610122
H         7.46601928319635    4.02721214066631    4.41778184182837
C         6.03740696513453    5.48707694705554    3.76561224528325
H         6.70526528904670    6.31855622340008    3.93879066791121
C         4.74610769411174    5.71349621540395    3.32012106369467
H         4.41019449786868    6.72186135346051    3.12883832104110
C         3.88005583300775    4.64864138507574    3.13238116640419
H         2.86977972393694    4.82635328696960    2.79536126885092
C         4.30797466408352    3.35421104257959    3.36303838211964
H         3.64203442267516    2.52152149893945    3.18960127128528

