65
CSD_code = LILVOS | q = 0 | S = 0 | Stoichiometry = C36H26N2Ni | MND = 4
Ni        5.19292396692303    0.10912496966402   12.26204190934359
N         3.49125095802663   -0.39870696478431   13.13086201134052
N         4.47022787711209    0.96595902309333   10.66711743695246
C         6.04687023478215   -0.57926068487134   13.81509759878483
C         7.37660856899693   -0.58653591818790   14.25137732844977
H         8.15743253544226   -0.20003090917685   13.60987709893292
C         7.74442126762801   -1.07657848824186   15.49445529652803
H         8.78540835630214   -1.06569802783936   15.78716608805830
C         6.79049522883103   -1.58007222011441   16.36236229478429
H         7.07799369781135   -1.96504886747717   17.33038101217201
C         5.46464707417360   -1.57680112608709   15.98307685637761
H         4.72108275610021   -1.95221098618291   16.67156755534698
C         5.08621896592907   -1.08349957923876   14.73436152766667
C         3.68908481761477   -1.02358100036553   14.31031805597106
C         2.60916281958223   -1.54197344173013   15.02904593833189
H         2.77459473796894   -2.05428276206169   15.96275575009049
C         1.32693144285187   -1.40424099262192   14.53757669744686
H         0.48395548508015   -1.80236289756729   15.08346714448364
C         1.13999217564720   -0.74610971780645   13.33108627253720
H         0.15548321493285   -0.61068834780019   12.91175974339757
C         2.25545500295833   -0.26645917042848   12.66740732401419
H         2.13522720582089    0.24709016569728   11.72022545796144
C         6.34682822536856    2.62748014324550   12.45585202516762
C         6.85270364051480    3.28917883022078   13.57240141669198
H         7.89122488925647    3.14393140848997   13.83135240124606
C         6.04888374054285    4.09937947334543   14.34958060599725
H         6.45636646650522    4.58430413282618   15.22445171485538
C         4.71938421939958    4.29193124221916   14.00709681532654
H         4.08624552582080    4.92359558436348   14.61270155680772
C         4.20792198083612    3.68292690119169   12.87791215252656
H         3.17565833290644    3.84429540625561   12.59655546298161
C         4.99938973614910    2.83913800282437   12.10117511295727
C         4.43987765046588    2.29233977777289   10.84648761971359
C         3.91181078896436    3.14337560048952    9.87967826551765
H         3.89754286443138    4.20793239701056   10.05723668106477
C         3.43161045720933    2.60885694593697    8.69750102662772
H         3.02277872946865    3.25014168615120    7.93074555945220
C         3.49583741603395    1.23556844435580    8.51281454534625
H         3.14244307757181    0.77784422151815    7.60242226495471
C         4.02082302560663    0.45421411110431    9.52666059563995
H         4.08410327785496   -0.62201649618061    9.42311477806626
C         7.77686058720756   -1.77737637244967   10.89440699958200
H         7.53432164574856   -2.11254545108558   11.89368399307783
C         8.35968611835073   -2.63965277643517    9.98686459720603
H         8.58528952763396   -3.65538155999574   10.27997909658867
C         8.64766199859102   -2.21255184786136    8.70013160576879
H         9.09863766354331   -2.89038919042966    7.98985882490124
C         8.34339067782617   -0.91330361749266    8.32623704294062
H         8.55428911438844   -0.57768714354053    7.32038839770184
C         7.77248797889760   -0.04259287334635    9.23273349772063
H         7.53500413333437    0.96991495114143    8.93625540502113
C         7.49223851852079   -0.45574478349206   10.54012169839964
C         6.84476817660252    0.47101827179449   11.46817136538989
C         7.23180508853453    1.75365372805678   11.64865401161488
C         8.48890333795658    2.34782913348501   11.17776240117156
C         9.67290598681070    1.61247049701669   11.13173982340716
H         9.67096332377240    0.58336347523667   11.45791652221220
C        10.84352957529421    2.19222315498890   10.68342084672998
H        11.75299555493906    1.60922201554053   10.65452582858873
C        10.85862942769700    3.51705112871545   10.27777858958337
H        11.77533171723484    3.96835298763107    9.92703437471151
C         9.69197852867538    4.26128169513864   10.33068017687235
H         9.69686507035792    5.29673561823857   10.02006842616137
C         8.51916507257680    3.68452605913625   10.77941569956390
H         7.60968874008022    4.26923303099987   10.81494377517147

