53
CSD_code = LILWIN | q = 0 | S = 0 | Stoichiometry = C24H22Cl2FeN4 | MND = 5
Fe        5.30034952930634   -0.15411283693777    0.46761570629382
N         6.36080754440587   -0.37253218657413   -0.93032459527874
Cl        3.83662997576632   -1.63736392650630    0.48847641247621
N         4.31406876486252    1.01054035651112   -0.85184652742572
Cl        6.13530491401178    1.44661302913220    1.51125129790353
N         8.52907682928359   -3.10575942947516    2.17542859445776
C         8.07063081724374   -0.67088483650509   -3.09221237035513
H         8.73577366561895   -0.78877267635729   -3.93269857001361
N         6.53225887783839   -1.34273672315808    1.28933570359790
C         7.53458130913317   -1.75141368709409    0.48348064158002
C         7.45577929035796   -1.18064453909528   -0.83379245462016
C         5.52723124163428   -1.39871900373096    3.46766841718144
H         4.76362273579673   -0.70857932572952    3.12558919870604
C         6.11593823295297    0.29594221197024   -2.09327741882339
C         8.32156861102901   -1.34780073118610   -1.90512948069669
H         9.17964670197520   -1.99267587816998   -1.80900132446468
C         4.92364100106061    1.08941954044177   -2.00001405497078
C         3.08757721826249    1.68704307872047   -0.64873234346716
C         4.31566720369012    3.73130430522243    0.21384512071242
H         4.15765843140211    4.79085876353568    0.02151163574068
H         5.15187067630693    3.38053060470205   -0.38473241420265
H         4.59422649357069    3.61407661290884    1.25950018061836
C         6.96567267223544    0.15896954413114   -3.18759685818150
H         6.75819866334307    0.69744884969056   -4.09798603033046
C         3.06364223272085    2.96505826295121   -0.08166295552219
C         1.88412078820384   -0.23208524794027   -1.78121108812574
H         0.90579698955849   -0.41156759666130   -2.21982473491111
H         2.11904638961586   -1.05053776580393   -1.10433825644507
H         2.63116750103771   -0.23893033950918   -2.57264701233065
C         7.53974928735284   -2.69956824934918    3.00661512242642
C         6.52525249149462   -1.80239269284948    2.56583252357267
C         5.53088286133508   -1.87130569968889    4.75419334501763
H         4.76215559498789   -1.55735217526644    5.44388668837045
C         1.88891987865336    1.06958196762441   -1.04101202165375
C         8.52131578013713   -2.63989688143906    0.96305457093508
H         9.31965540263013   -2.96684917401243    0.31146780905330
C         4.46457208708856    1.93119553101053   -3.15043800518173
H         3.53934273626133    2.44520119790789   -2.90341526461674
H         4.30462576434739    1.31261135457358   -4.03226470295783
H         5.22691904055321    2.67148725863194   -3.39027616956046
C         0.68966868116201    1.69956444447083   -0.75496241518674
H        -0.23313498892711    1.21726317199036   -1.04433350913507
C         6.52426234748147   -2.75939343469354    5.18648670569766
H         6.50631619884135   -3.11965812318403    6.20404974472846
C         7.51351874875190   -3.16764374455467    4.33005131357848
H         8.29159853727450   -3.84730915722583    4.63919430533997
C         1.83623986773958    3.55802488080010    0.18533738921227
H         1.82678057819873    4.54050134049850    0.63569473782651
C         0.63991603246735    2.93308145259442   -0.11945837683933
C        -0.67819283501827    3.57018156461392    0.19919047017840
H        -0.54651750600237    4.60362229041010    0.50949539929029
H        -1.16886044521348    3.02818058980432    1.00743203374042
H        -1.33744144381589    3.54348385785270   -0.66679611293610

