49
CSD_code = LILXIO | q = 0 | S = 0 | Stoichiometry = C18H24I2N4Ni | MND = 4
Ni        4.60682588069451    0.00022777746244    7.25613992767454
I         6.61996582576486    1.44266966149732    7.05574808496691
C         4.18619737369202    0.34344652810527    5.44038098835215
C         3.34024652719480    1.28923762945015    3.60979876834200
H         2.78339749062590    2.00735214554328    3.04453627255647
C         4.06289494662516    0.21483270063595    3.22056237307833
H         4.25303758772092   -0.19295418575169    2.24956415729838
C         2.81659709529204    2.36545209135299    5.80136386474758
H         3.01316411288833    2.08110059092461    6.84895937223449
H         1.73353050560010    2.37232040154274    5.64123206322369
C         3.41063613268644    3.71460643479076    5.52942393383163
H         4.48976884104243    3.75914543638324    5.58993874826031
C         2.69701274014203    4.78436093336891    5.23812826646176
H         1.62076598119818    4.75140126536011    5.17625129964272
H         3.15719274152425    5.74011524568123    5.05838879143589
C         5.38749797918925   -1.54479830979478    4.39368194932193
H         5.73999729912072   -1.65947911647096    5.43154239746716
H         6.25904979763278   -1.41843424567632    3.74366271577989
C         4.59068353723560   -2.75206441712968    3.99807187873865
H         3.66668585604656   -2.88845214512788    4.54368567435385
C         4.96268945023267   -3.60201187166811    3.06135707009000
H         5.88291154880880   -3.47859759023274    2.51264840798508
H         4.36952928112888   -4.46435368983790    2.81235673943179
N         3.42505538435198    1.34952634323269    4.97561150594251
N         4.57736477001026   -0.35052426795540    4.35756335010307
I         2.58950115366486   -1.44127841583995    7.44810634049225
C         5.02491036044379   -0.34372475526159    9.07194390386021
C         5.87059945334513   -1.28946255481551   10.90229134210867
H         6.42744425142370   -2.00757230833473   11.46749803751028
C         5.14798616317865   -0.21495306819641   11.29147427263602
H         4.95785485809549    0.19295838395214   12.26238577114571
C         6.39427522426656   -2.36554731038594    8.71045327825694
H         6.19754642968690   -2.08111131195642    7.66290030422985
H         7.47736500765241   -2.37234635933746    8.87036382416504
C         5.80027741880017   -3.71469281967594    8.98246100408336
H         4.72115822180423   -3.75934136762562    8.92169015025731
C         6.51397279212965   -4.78440238222732    9.27369800260230
H         7.59026533412421   -4.75156327073075    9.33472601808164
H         6.05389289075757   -5.74032332341287    9.45274446258636
C         3.82365163218059    1.54481663079218   10.11783960120347
H         3.47138263305757    1.65945151196956    9.07985150374630
H         2.95191800961921    1.41871386435659   10.76767684689191
C         4.62069013037939    2.75193469364373   10.51343353868784
H         5.54471745748821    2.88817974978587    9.96782567711320
C         4.24868524039600    3.60206335712620   11.44996572509564
H         3.32828490188238    3.47896241195199   11.99844379869170
H         4.84176478851612    4.46453006465543   11.69867255121345
N         5.78587998117935   -1.34981856359449    9.53650429101612
N         4.63357697947890    0.35040179747458   10.15445115300347

