30
CSD_code = LILXUA | q = 1 | S = 0 | Stoichiometry = C12H15N2Ni(1+) | MND = 8
Ni        1.60080381794169    3.75288426731325    6.87565496358092
C         2.24703916827837    4.64509046473982    8.44839185058341
N         1.24897362393277    5.16456262779874    9.20170858303565
N         3.38993604173718    4.98884942617887    9.06892969681828
C         1.75878500796393    5.81175957381646   10.28611476856366
H         1.14456817845763    6.29424537689562   11.01777658356855
C         3.10836002329975    5.70109474649159   10.20002672598355
H         3.87609036270572    6.07251388501075   10.84702855211783
C        -0.14450699085596    4.99106248216372    8.85374715651222
H        -0.67319044088154    5.94223378201312    8.98478186984905
H        -0.59779356050708    4.25171557847493    9.52253132545632
C        -0.24660352210519    4.53859007294635    7.40819583024791
H        -1.03752340962298    3.81980302210878    7.19897153816619
C         0.30791546300264    5.27788429177647    6.38220211515471
H         0.78345991317738    6.23470443110179    6.58519622296335
H        -0.03775095708373    5.13421642479493    5.36293771511586
C         2.85635849192533    2.16229099933346    6.89063611183552
H         3.56426131406452    1.82292055373501    7.63327859418838
C         3.20214368591957    2.97939062866893    5.73014276470714
H         4.18938088054492    3.34185962898759    5.49412978801864
C         2.09119386900890    3.01827049200461    4.90655905398822
H         2.02995970287149    3.45654501077906    3.92435994498520
C         1.04806904707146    2.23905721436478    5.53444499831820
H         0.09949232252225    2.01026566829640    5.07157427768473
C         1.56194013281387    1.63199852407384    6.69227957314315
H         1.08186010682693    0.87716467644955    7.29116669951394
C         4.72668958736795    4.66985745500742    8.64097645698225
H         5.09884748316270    3.79122128619907    9.17098801980481
H         5.38833837832333    5.50893966909467    8.85010476441402
H         4.72490227813586    4.47190773938006    7.57076345469847

