55
CSD_code = LILYIQ | q = 1 | S = 0 | Stoichiometry = C27H19BrFeN5O2(1+) | MND = 6
C         5.32616169359204    1.03912005157594   15.94458026812809
C         6.21224579808297    0.22433007043743   16.63261844528638
H         5.79233657327033   -0.55187631065719   17.25389420873470
C         7.57057489105834    0.43724995980976   16.49411372618649
H         8.28708744242792   -0.17737559135994   17.01530862608158
C         7.97978146759397    1.46321576342418   15.66372608320962
H         9.01599387408235    1.70767466984344   15.48679447347726
C         7.02410449337015    2.22974403620704   15.01459536824497
C         7.54624011287642    3.34793675458386   14.10637931660413
C         6.94690214777269    3.11734612966590   12.70129177355289
C         7.85708187712240    3.01436115639226   11.65766275310813
H         8.90617834882787    3.06917780659077   11.90724099115017
C         7.38805189054007    2.85950384631883   10.36874927170972
H         8.07233306062150    2.76946680852965    9.54002116738202
C         6.01476484361246    2.84908919726618   10.17430484470786
H         5.58517192754034    2.77042719111071    9.18907810876203
C         5.18514385806781    2.95576503333922   11.27251133174580
H         4.11880984261222    2.99339322790448   11.12534505740009
C         2.69264679016895    1.19785679357195   12.63842436917377
H         2.70190584204710    1.98473081699291   11.90306194471645
C         2.00754787431024    0.03010548219648   12.36882964747503
H         1.52006323982733   -0.09238549482248   11.41554008026764
C         1.95339858382741   -0.95512031262947   13.34365564339705
H         1.43620432021028   -1.88582344863097   13.17207837779874
C         2.56309234418603   -0.69948877320667   14.55531315524365
H         2.54819811169858   -1.38812766454057   15.38686627889501
C         3.22767843886965    0.50606293758295   14.73747569254020
C         3.83517713065718    0.74319924757434   16.13785057844951
C         3.16831932615663    2.03974159370762   16.64832842595544
C         2.43854304465643    1.92871549162510   17.82452966778821
H         2.41423107634678    0.96120354189309   18.30340288019038
C         1.78144036818432    3.03859760729555   18.31588859673715
H         1.20925824871347    2.98151812464776   19.22834257079455
C         1.86466253921181    4.21714860137590   17.58930533889658
H         1.35004037193544    5.11049518420018   17.90318305947908
C         2.61455895268246    4.23439158761086   16.43027980292480
H         2.65007463551271    5.13455550517302   15.83988946363539
C         5.13169913522285    6.00379501883348   15.04488161900646
H         4.06213970168420    6.13152023986823   15.04866711694770
C         5.94041730668681    7.07762533205782   15.35914003057676
H         5.49230136250841    8.01841208315516   15.63398807246948
C         7.31709077214361    6.91964510152308   15.29876043755154
H         7.98570866520205    7.73054317503767   15.54080012313893
C         7.80997703199836    5.69468063456406   14.89669691123685
H         8.86335216393309    5.48163152821116   14.79184109977063
C         6.91970164267612    4.67179046403065   14.59769293025096
N         5.71159979455558    2.03397594660358   15.14473140393749
N         5.63252728595994    3.06079923535824   12.52681542652690
N         3.32110009777298    1.43396033654795   13.79330818447848
N         3.27837126850278    3.17241355982134   15.96559346829465
N         5.60243774205026    4.80535262960254   14.68904813196035
O         8.85328582943015    3.40174766372042   14.08046500388049
O         3.62608961100189   -0.26745147827853   16.94207492105934
Fe        4.39519508213712    3.17500245104019   14.20224441557224
Br        2.88170012425960    4.48682945570267   13.13028931351080

