51
CSD_code = LIMDER | q = 0 | S = 0 | Stoichiometry = C17H24N3O5ReS | MND = 6
Re        1.64348083590450    8.81038417679141    5.45192240807058
S         2.15575655243582    5.68045475020344    5.34172991854377
O         4.25388958532165   10.45764778483161    5.45399223814366
O         1.83637229246579    8.34117238761726    2.39615198689178
O         0.02335278399058   11.39406687490278    4.95755163899709
O         1.15858433073366    4.90100170264236    6.06236449045130
O         1.71969289052209    6.10239426196009    4.01747403198557
N        -0.25107245292592    7.58608206238483    5.77704700138997
H        -1.10033834979395    8.02385615217633    5.41998363680654
H        -0.09571354460298    6.73431930059736    5.23261275089512
N         1.38184676070553    8.89886786887933    7.75971552945608
N         2.52503361617481    7.00700039439158    6.15188590002420
C         3.27815527607811    9.84618636258756    5.41766092164906
C         1.77651845073937    8.45654962751536    3.52924391720678
C         0.63564758368890   10.42550202569921    5.09675132686117
C        -0.41177247201244    7.22345346650617    7.19005884520553
H         0.17247600890381    6.32090030676467    7.37607991916681
H        -1.45758617581448    6.99216159009269    7.43290774407377
C         0.04251599501773    8.37792235771018    8.08667650476299
H        -0.00274422960823    8.06326198598768    9.13971495424952
H        -0.66524033850950    9.20291407498100    7.94794487903741
C         2.46909087260798    8.08502347660925    8.33467968565563
H         2.25840946804240    7.84881415802197    9.38812511648461
H         3.37240852944730    8.69950972393228    8.29316179692843
C         2.75802237675133    6.79549470674086    7.55162074623021
H         3.80904082467808    6.51019821478350    7.73945673356428
H         2.13826500167036    5.96162741252836    7.91835098699962
C         1.48695580288304   10.24583037559178    8.33808765337002
H         0.72074364601781   10.89456218523311    7.91613767598656
H         2.45717600915547   10.67786238245882    8.09893832880771
H         1.36865513279281   10.21746796014432    9.42837947721981
C         3.67953668154601    4.71750104058909    5.18480264177180
C         4.74275519481865    5.33496680743049    4.52546942818141
C         5.95404436559128    4.66355068841191    4.42868988981294
H         6.77830722196813    5.14047744474421    3.91782354795111
C         6.13001803836304    3.39897210930023    4.96991248405323
C         5.05493582227542    2.80585330240920    5.61050825867846
H         5.17161190600308    1.81706198212988    6.03160690229790
C         3.82361014449437    3.44337365705675    5.72949134489942
C         4.61039397895447    6.68729549941699    3.90711114847961
H         3.84385367797994    6.66465978709079    3.13630450413188
H         5.55265961217648    7.00291189765344    3.46604087762336
H         4.29669422038585    7.42113456821933    4.64783169238201
C         7.44229289031344    2.68817820193862    4.83878663170335
H         7.52334899548503    2.24086294370914    3.84796339100286
H         7.53254442044581    1.89590721345413    5.57772463897166
H         8.27047920389665    3.38298497186618    4.95997938603397
C         2.72171284249793    2.71509405503046    6.43380854444098
H         2.44209948201141    3.23128181312863    7.35049722720478
H         3.03716270995322    1.70367865964080    6.68251033866425
H         1.83051552737769    2.67226324551293    5.81312837659774

