54
CSD_code = LIMDAN | q = 0 | S = 0 | Stoichiometry = C18H26N3O5ReS | MND = 6
Re       25.11024768569245    5.45715503780995    1.40540075374177
S        23.67385772043276    2.96743236687868   -0.07155620771534
O        23.11677503932572    6.76167560572420    3.36649314401238
O        25.69770563981366    3.11411650456010    3.34395876078080
O        27.27558647901243    7.12607542602272    2.84823403765955
O        24.47077282306006    2.38882711433227    0.99617105163647
O        24.16248746525558    2.68695205591030   -1.41328888301623
N        26.78925966906265    4.86462058659713   -0.26058597534834
N        24.71408061839863    6.92163074058057   -0.35321680329610
H        24.83502645463128    7.89107240199110   -0.05760394556837
N        23.64452495118434    4.54362351482281    0.18227101156484
C        23.86119242261560    6.24589430496751    2.65415797870655
C        25.43465239564124    3.93438428240789    2.59591860723685
C        26.49277294691140    6.46767166118510    2.31226946966589
C        26.17189662570738    5.25710884889976   -1.53182671841679
H        25.37242181027080    4.54357957864452   -1.74519276567188
H        26.90358632697564    5.19298600355472   -2.35495854433181
C        25.62252197334750    6.68736190804680   -1.49046770252894
H        26.45875539601704    7.38935749828479   -1.41198481143973
H        25.10882484584172    6.89150971674909   -2.43947779807700
C        23.29144657449302    6.76313083674268   -0.69610846648752
H        23.04375929859538    7.29942502625514   -1.62345071098015
H        22.70922284547585    7.19195236438511    0.12492928976833
C        22.93589025690049    5.27931375435531   -0.82640527115250
H        21.84364693212824    5.16097091215760   -0.71356002680289
H        23.19475210343000    4.90393244969861   -1.83107241140036
C        27.10662123427307    3.43517153175824   -0.30832701898947
H        27.83389261608859    3.22446016843560   -1.10346486204049
H        26.21022468637160    2.84926849070597   -0.49202020527584
H        27.52486253538882    3.12610676673283    0.64839124273312
C        28.05378038971996    5.58116920719688   -0.07001787679485
H        28.52897374796582    5.23480656107755    0.84621308717936
H        27.89543327827786    6.65409634002987    0.02113451729521
H        28.73667347998764    5.39578841491566   -0.91028961816014
C        21.96718044178706    2.38265104060215    0.08466667809434
C        21.25397522996036    1.85117440181024   -0.98916954265703
C        19.93616283503215    1.46031015198323   -0.78144095137951
H        19.37737218876498    1.04503525706935   -1.60859334044987
C        19.31812527356191    1.58376281309189    0.45382343486643
C        20.05052918888000    2.11627699951405    1.50156272203116
H        19.59018639923923    2.22070159456941    2.47371250557483
C        21.37021283484362    2.52081134420664    1.33666138460931
C        21.83126000333965    1.67466691875957   -2.35884795949936
H        21.11379262303205    1.17781550425338   -3.00908992271249
H        22.74669705662719    1.09027050685286   -2.31794592272940
H        22.09292591465585    2.63730962576266   -2.79432195349477
C        17.89325180159636    1.15637110699717    0.63346343964964
H        17.60157328262734    1.20420588937848    1.67920431616863
H        17.75373109806521    0.13765341610123    0.27598327139777
H        17.23092418896248    1.80377740857241    0.05914140148299
C        22.10691261086204    3.08118499910154    2.50812614585581
H        21.45705940339885    3.14297135863409    3.37765125907379
H        22.49512576887138    4.07245814081562    2.27913932400908
H        22.96327258759767    2.45316353950468    2.74190738162312

