53
CSD_code = LIMDOB | q = 0 | S = 0 | Stoichiometry = C19H23N4O5ReS | MND = 6
Re        3.32419016554843    4.72563637983523    9.38979901417322
S         1.89172931313098    6.19873378685435   11.99102802605113
O         1.36325542226091    4.10117482810742    7.08402640054248
O         3.71998530159317    7.63862524622335    8.45220362216210
O         5.63660809375601    3.50261978832423    7.73713525271369
O         1.78827051308415    5.45450307474933   13.23670492021631
O         3.10040210574342    6.99862766133609   11.84523969301067
N         4.70201264973330    4.90183115409255   11.18644759540427
H         5.69730044370121    4.93945746027575   10.97038098765542
H         4.42744642029673    5.81803416730601   11.57036793990155
N         2.90001495213731    2.76632130890374   10.61585597831198
H         2.82754308012305    1.97435872998337    9.97768564750767
N         1.78310398763590    5.21292950100397   10.73549219130544
N        -2.09704032438050   11.10940755857770   13.46848032301087
C         2.09463526765860    4.35809739250349    7.93334686339257
C         3.60617631075051    6.53990875405353    8.74390222172372
C         4.78642028503885    3.99321345918696    8.34036434822498
C         4.43278507638047    3.86331609099880   12.18784889381113
H         3.59500910182142    4.19543382807848   12.80905135551881
H         5.29441610258435    3.69445793977451   12.84458728970066
C         4.06811360465752    2.55277885959587   11.48182324185794
H         4.90648493476768    2.23757545809514   10.85043189427715
H         3.87811103079859    1.76812826083852   12.22706261777167
C         1.63446854478997    2.86952738941058   11.37442792626950
H         1.85310274628124    2.98274355573500   12.43790766531946
H         1.02013091301341    1.97417102405011   11.23760187348050
C         0.86016556055511    4.12805062913515   10.92898492948807
H         0.33639089221180    3.92538116391927    9.98449254573883
H         0.11889072096834    4.38319081563519   11.69486712459257
C         0.51292458920902    7.34549064104887   11.85395760264708
C        -0.16469176588692    7.36792143600260   10.66957026984204
H         0.12811004826373    6.69289918759397    9.87930852774837
C        -1.24231157183174    8.24721422937927   10.49904386736405
H        -1.81220137100003    8.21738190048283    9.58254028305025
C        -1.56762530311110    9.13232819380146   11.49083296190914
H        -2.41749306541867    9.78602742892305   11.37239072111831
C        -0.83254902666296    9.18709996884995   12.69296036171623
C        -1.12695080903590   10.13263044871816   13.72319091195221
C        -0.48632274673393   10.01362225797154   14.93841285016777
H        -0.71535960005036   10.69360305780385   15.74422063979192
C         0.50223470142351    9.04545167310983   15.14389349455904
H         0.99558300652559    9.00168108331818   16.10400939911893
C         0.87194381978330    8.19109715979450   14.14290491374923
H         1.65231710929793    7.46361120518843   14.28600212052824
C         0.20358264337955    8.23382450738137   12.90410021039733
C        -2.75518758307663   11.71400269217114   14.60244703065360
H        -3.04317853068160   10.94044437816178   15.31148698328249
H        -3.65823840768391   12.21035617387486   14.24358156665633
H        -2.13729493775127   12.46447590890367   15.11604197116894
C        -1.78163252093412   12.08628840170733   12.44365360204245
H        -1.27391155715142   12.96080363432367   12.87445058207528
H        -2.70356058610560   12.42695620097882   11.96750503727316
H        -1.12950975139880   11.65255296393884   11.69094570805601

