105
CSD_code = LIMGUL | q = 0 | S = 0 | Stoichiometry = C40H56N4O4Zn | MND = 5
Zn        0.77605401618672    0.39466940498714    3.40892287488120
O         1.67378674257806    0.38927783690949    5.08512986181779
O         2.14878838057441    1.30685165856269    2.49924850145357
O         2.57874993399621    3.68665848669529   -2.42423995693369
O         1.39452681542127   -1.48136007581755    2.86178475182591
N        -0.89658004831286   -0.11606307977249    4.36474358897748
N        -0.50519070261740    0.75591009417083    1.90214485637985
C        -1.94908903715892   -0.24996705766116    3.49567076966942
C        -1.74174112729139    0.21262888698574    2.16872157384964
C        -2.79135769942124    0.03716511922335    1.26701466661132
H        -2.69047468189651    0.32968152070836    0.23208334284451
C        -3.97179694316350   -0.54126766744097    1.70125335260068
H        -4.79602056364352   -0.68908060835235    1.02067737168839
C        -4.07017323144201   -0.93926503498968    3.02581801276546
H        -4.97148082801962   -1.39766922332106    3.41111560503462
N        -3.08777314917520   -0.80510903779135    3.89621107249668
C        -1.03797189762531   -0.39879203919241    5.62956082271508
H        -2.02492003314498   -0.72388741969337    5.96588035420432
C        -0.02690735240614   -0.28864970696099    6.60270880381216
C         1.29570367902926    0.16854357219142    6.28546130857567
C         2.20314256539378    0.35997640052333    7.38745040245097
C         1.79652815043808    0.02289765243870    8.65052485853710
H         2.48393727355443    0.15753511361604    9.46854213002464
C         0.51800942288428   -0.48855457739969    8.96190426214756
C        -0.37224382510517   -0.61540143104916    7.93469224242801
H        -1.37801656899191   -0.96693591471885    8.10233737179114
C        -0.22975069567963    1.38316412543610    0.79720682161130
H        -1.01714796252780    1.53438068114510    0.05253405372694
C         1.03081512098170    1.91833472565346    0.46266471841012
C         2.15829316627351    1.85013376809799    1.34223075590487
C         3.36812494817052    2.44053054881211    0.87179298845252
H         4.21933202378918    2.40135642710625    1.53442961966635
C         3.46288775241351    3.02649425354347   -0.35327046601872
H         4.38785131001282    3.46399682970178   -0.69704499512074
C         2.34868665951227    3.08284698329774   -1.21888011782939
C         1.16077591204377    2.54456815439494   -0.80260866516490
H         0.28386937142364    2.57630802128444   -1.43258516940281
C         1.52484588920695    3.74174451901097   -3.35947507605439
H         0.69112296273852    4.33772822577021   -2.95993531546666
H         1.15512655216693    2.72849108589102   -3.57516375734993
C         2.06662662534795    4.37914470397095   -4.63440525899645
H         2.43041989429793    5.38012154964096   -4.39723780875444
H         2.91536131615217    3.78543022875424   -4.97368758246107
C         0.99860741682178    4.45500215566157   -5.72172735073639
H         0.14093930377504    5.01009487446513   -5.33321451963597
H         0.65602409688193    3.44599618246522   -5.96375074187015
C         1.49005251130321    5.13871367940699   -6.99798936465199
H         0.63528282431726    5.29069365561513   -7.66178590990006
H         1.89192794932720    6.12302992531356   -6.74830637054893
C         2.55051317567148    4.33276180688256   -7.74514556686490
H         2.17225636515138    3.32443190521827   -7.92995607633296
H         3.44801562705281    4.24448740250569   -7.13128686682238
C         2.92521648737556    4.98056808936801   -9.07611764113116
H         2.03363789589260    5.06375334392736   -9.70240892693269
H         3.29488309973377    5.99239776973454   -8.89375064647304
C         3.99111404505030    4.18031684913401   -9.82080181188829
H         4.88322881854983    4.09896170188471   -9.19516343905144
H         3.62181616899167    3.16752792356569  -10.00005310101523
C         4.36756721906756    4.82192837855524  -11.15378075392909
H         4.73614239073453    5.83499442335781  -10.97531195122441
H         3.47616338446990    4.90140384382200  -11.78070090466785
C         5.43511595461600    4.02118123858080  -11.89548190483912
H         6.32856611072102    3.94768087061071  -11.27110935324075
H         5.06904349764643    3.00645695397718  -12.06845322756049
C         5.80140734274996    4.66092360305259  -13.22920316357685
H         4.92775944161385    4.72428682805694  -13.87433165938227
H         6.56285648651894    4.07517628377088  -13.73906080811541
H         6.18679142862804    5.66671073354576  -13.07657331001856
C         3.58542150198602    0.94334693193197    7.11546658140609
C         4.36831156129670   -0.00962400250046    6.20228651204506
H         4.48711050970901   -0.97768599308317    6.68924318136285
H         5.35656856057328    0.39722860146020    5.99706406862967
H         3.84080973017769   -0.13460499787734    5.26201456245618
C         3.42844468849775    2.30416707156879    6.42367212813496
H         2.93583255479994    2.18643753128299    5.46372305895311
H         4.40539462107312    2.75467038014871    6.25968985848274
H         2.83614807329807    2.97489434175915    7.04327084848658
C         4.40535846195459    1.15601635354199    8.39319982499072
H         3.90218707203485    1.83873204088659    9.07416427090158
H         5.36622205586835    1.59443470602815    8.13054796079933
H         4.59861576779250    0.21527545018550    8.90536061823113
C         0.20049269758139   -0.84273758819191   10.40639263135676
C         0.32748164348650    0.41571231394391   11.27602938825057
H         0.07895384645886    0.18509049395033   12.31007969693884
H        -0.35301032594169    1.18617822379855   10.92009621080655
H         1.33708563734078    0.81627330115707   11.25085888665080
C         1.18882255777742   -1.91244952725271   10.89255193637098
H         0.96676065434278   -2.18922804110196   11.92122738840502
H         2.21387645469654   -1.55478501010177   10.85185308794616
H         1.11273186982471   -2.80264030275630   10.27132986002588
C        -1.21738468429286   -1.39586722125657   10.57200925882965
H        -1.35588904352727   -2.29738136366928    9.97983894012736
H        -1.96013567289930   -0.65880620700908   10.27703209938035
H        -1.39005902009080   -1.64800468229049   11.61657344528237
N         2.95150381783617   -2.65018357626269    4.01834871540340
C         2.53854241251812   -1.89599204262582    3.00914009166990
H         3.31973368375609   -1.69289254528102    2.25955726233100
C         2.06361292197842   -2.98768777324509    5.10669987203477
H         2.41325980271138   -2.53454245390834    6.03590617890062
H         2.01685311709009   -4.07136679245110    5.22778090172024
H         1.07292431352530   -2.60133019913285    4.87894784466638
C         4.30600926384852   -3.12383372921768    4.13153122178605
H         4.88812464952758   -2.80109647947088    3.27131780056292
H         4.31831912721049   -4.21532124788126    4.18116997950521
H         4.76850593671992   -2.72824409251508    5.03766164863817

