41
CSD_code = LIMKAV | q = 0 | S = 0 | Stoichiometry = C13H19ClN6OPt | MND = 4
Pt        3.63374200957038    8.53817816769953    1.00681604314432
Cl        4.89723947111391    9.92069039901891    2.25707252113133
O         1.92264622876759    8.54271525496072    4.82059154623493
N         2.58565502115678    7.33723106582519   -0.27256234139095
N         1.57775345698889    6.41710189493107    0.12171846025157
N         3.57391417383533    8.22160306304672   -2.24409228831000
H         3.51234807167426    8.12735689966245   -3.24698935433317
N         5.39639025354416    9.59869476464669   -2.69973751286201
N         4.80633984049181    9.07482079003912   -0.49211906607330
H         5.53749165074578    9.69732473527146   -0.15881564444257
N         2.49966542581759    8.18540202430235    2.57184654689114
C         0.36915057728344    7.11852488818550    0.51464782061087
H         0.54400836334469    7.79879877902804    1.35627535092106
H        -0.37449922042506    6.37675323640399    0.79542602258683
H        -0.00093249571640    7.68224985046971   -0.34205761051792
C         2.07787057267732    5.51857028267339    1.14626762553379
H         2.97937571139774    5.03291560339770    0.77323935236496
H         1.31520459157703    4.76302275515959    1.32392948168001
H         2.30906540511048    6.03541463992467    2.08373669105064
C         2.68647260708246    7.42424784840556   -1.56067994575720
C         1.80379269027581    6.66846790093443   -2.48611869411876
C         1.06347999260352    7.36620155107302   -3.43755932103489
H         1.10562993003075    8.44635244081692   -3.46645654365914
C         0.24147838803696    6.68608918095721   -4.31843384402921
H        -0.33858888461311    7.23686587244660   -5.04357928557631
C         0.16202477843680    5.30507891406371   -4.26663307697002
H        -0.47944127619049    4.77515069095733   -4.95415338540505
C         0.90534831447732    4.60606565655215   -3.32899700203452
H         0.84707129006420    3.52909234389458   -3.28890959027565
C         1.72127179686359    5.28013780831768   -2.43978308601296
H         2.30038225382710    4.73570727098952   -1.71273034391719
C         4.61085739066247    8.99613638832865   -1.75893325178400
C         4.96750077747240    9.73988227547697   -4.07472826678711
H         5.06770902360625    8.79917573885018   -4.62702708599463
H         5.59611636990307   10.47901652886279   -4.56451725248444
H         3.93437840998775   10.09218576424528   -4.14056287591122
C         6.54877914624334   10.35594574164159   -2.25425104842537
H         6.26129737487932   11.29967476297190   -1.77959351812895
H         7.18202849867349   10.57251783873246   -3.11074919865586
H         7.13309538091692    9.76658696106869   -1.54663288190813
C         2.27738663780909    8.42185142576795    3.70983585439899

