43
CSD_code = LIMKID | q = 0 | S = 0 | Stoichiometry = C13H18ClN7O3Pt | MND = 4
Pt        9.77200279616934   10.53555507864266    5.22420320024373
Cl        8.91157612244562    9.40940562020364    6.96037034777926
O        13.25908151728912   16.09127666672458   -1.03443031278589
O        14.87206454279594   16.39380516382910    0.36020039504564
O         9.85155685426888    6.49700940617199    4.19752511229707
N        10.54744376507628   11.69080760716304    3.74875443181699
N        10.76369432721573   11.25932980506565    2.41623753359605
N        10.97079352693689   13.55646852796528    5.16150584171712
H        11.38912591106626   14.47433998397772    5.12802067762678
N        10.29097995291833   14.18181319728332    7.29884851701416
N         9.58975424600797   12.15338828880532    6.36372756525146
H         9.12536983723088   11.92752917500339    7.23829082953130
N        10.00325628207455    8.83973720480034    4.26164181246056
C        11.93163790334815   10.40093099107939    2.32548733224195
H        12.80516781617370   10.95683001225714    2.66629930303441
H        12.07070918527429   10.13350571045194    1.28097366958313
H        11.81792114292690    9.49032135127910    2.92439012010473
C         9.56422512635185   10.65630596465126    1.86366950254984
H         9.30554685317724    9.70940297740137    2.34874602900271
H         9.74021370137397   10.48551368256694    0.80350713782338
H         8.73686700053155   11.35622520702704    1.97897250186059
C        11.02670009352049   12.87836933120160    3.96391853034323
C        11.73959734294131   13.65076118833704    2.92103482353279
C        11.16256242149839   13.88812833687795    1.67120087079642
H        10.18550882339335   13.49361511765407    1.45123542673526
C        11.83302512422630   14.63656327286025    0.72833949844916
H        11.40117905072724   14.83782208571660   -0.23974723031220
C        13.09263195121721   15.14914605598644    1.02609790451948
N        13.79330143042061   15.93257032723168    0.04414870918241
C        13.68221711503450   14.91953309405966    2.26401083662317
H        14.66408253548504   15.32090754850591    2.46264214942497
C        13.00130056928634   14.18039180336626    3.20804827074340
H        13.46739231689224   13.97723262928832    4.16134017326655
C        10.25969312582398   13.24972871283616    6.30667190013927
C        11.22874133719125   15.28382778607242    7.28814139463393
H        12.24819805571510   14.94231928369172    7.08862711929206
H        11.22916024507345   15.75413041253488    8.26781805620954
H        10.94753067847895   16.04689196480361    6.55445177283750
C         9.50961715221997   13.93846006003242    8.49584169009660
H         8.47488916073220   13.71300207948781    8.23241199252760
H         9.51014116464768   14.83493888705833    9.10931185109309
H         9.91638293225044   13.11031305993918    9.08429426348264
C         9.89255896257993    7.66104534010122    4.31151844857813

