88
CSD_code = LIMKAT | q = 0 | S = 0 | Stoichiometry = C43H36INO3OsP2S | MND = 6
Os        9.56340516369536   11.28158039922137    2.90509841457118
I        10.24495399624345    8.63359681066843    2.61243973623300
P        11.87719232085274   11.72800797188504    3.08045094900781
P         7.31110401468817   10.57292679743489    2.88406177804428
S         9.87742338824055    9.55191227238408    5.68996967783253
N         8.69877344214210   15.35650910808188    4.19459306120323
O         9.53141039505093   12.03214640128115   -0.03142093749304
O         8.63134817492679   16.00977744336851    5.22259144555286
O         8.56337337563981   15.84023557994188    3.08405359707063
C         9.55956327712080   11.64243627605853    1.05422674538315
C         9.55073807824086   11.10101760577650    5.02117455504438
C         9.32551085403247   12.13444897092524    5.94541268053301
H         9.35310731261838   11.92310858616173    7.00857913357232
C         9.07048464288658   13.43951270537057    5.61426562134019
H         8.92956232626415   14.15731242505544    6.41263763800677
C         8.96144573839227   13.94225806717534    4.30118530420942
C         9.07904376143327   13.21634950376298    3.14476675391642
H         8.90413822956417   13.85322462306643    2.27049863098184
C         9.81923350631962    9.61698048849209    7.51048520127724
H        10.01600833028413    8.59394031538522    7.81549525690630
H         8.83255075029818    9.91873494179920    7.84864834104624
H        10.59723628197578   10.27057675681551    7.89285493250135
C        12.27513549255844   13.51270085509264    3.17452617627533
C        11.72732441895941   14.28701632581768    2.15263306667143
H        11.14406586345082   13.80303138138532    1.37954557993111
C        11.92873429441965   15.65203977207971    2.11597961883668
H        11.48220106046115   16.24175439628394    1.33027661970074
C        12.69246547983438   16.26077972228997    3.09957092354811
H        12.83593525656405   17.33054283253237    3.08865255883156
C        13.27898867981752   15.49250098986930    4.08951045055814
H        13.89427461801807   15.96052221841849    4.84412236476610
C        13.08145637278273   14.12173414181954    4.12716048335238
H        13.56394233775747   13.53911685915844    4.89853037039430
C        13.03260632158162   11.29861782431533    1.73094414019037
C        12.63594020308986   10.66441343843365    0.56281044194210
H        11.61011089391655   10.35542780933884    0.42969397213015
C        13.56214484662754   10.40121560224960   -0.43240761251024
H        13.24603845778785    9.90068591979954   -1.33497873483049
C        14.88409349365737   10.77348696596768   -0.26813852527956
H        15.60527008497268   10.56754832214392   -1.04491669525164
C        15.28512751085298   11.41012276049082    0.89712577571659
H        16.31680445141472   11.70196733307146    1.02810417121754
C        14.36615244862184   11.67439358939851    1.89222255644579
H        14.67652414775016   12.17210644961910    2.80153991080049
C        12.70353093765355   10.96802989695111    4.51039534757401
C        12.54113833384594   11.50537152766618    5.78625529923090
H        11.94367083457350   12.39771651041027    5.92249756079406
C        13.12620620276903   10.88927932296023    6.87688709324214
H        13.01781361019617   11.32412833662098    7.86132716890914
C        13.84314196114961    9.71471568717632    6.71100639806060
H        14.28979855768934    9.23126032923560    7.56730097640815
C        13.97173617432853    9.15614174348018    5.45071004683329
H        14.50850744656248    8.22878839753346    5.32047057162838
C        13.40822552561955    9.77835479254566    4.35138840706929
H        13.50076322169821    9.33226064863410    3.37133864556705
C         6.65461899192191    9.48622363093537    1.57043394044063
C         7.35670329496971    9.22797928424584    0.40194464112651
H         8.35554675255735    9.61667946746736    0.27052287097259
C         6.78820247828793    8.45075104896711   -0.59230117786080
H         7.34567282215116    8.24560183807286   -1.49344895852053
C         5.51468945862768    7.93603615254141   -0.42842354184508
H         5.07296180718932    7.32688606637763   -1.20277437849695
C         4.80362880536166    8.20298796110472    0.73172073159923
H         3.80730112159640    7.80619760121539    0.86039395143398
C         5.36579239202238    8.97829836594498    1.72594631496018
H         4.80909849464012    9.18924639328187    2.62908483343483
C         6.05270962494836   11.89213784335957    2.71950277534730
C         6.27621594239541   12.82340578792383    1.70825157331452
H         7.16594436934078   12.73880260565690    1.09918238711952
C         5.37170904653349   13.84050712083986    1.47497763525672
H         5.56480711933645   14.56503661818881    0.69857634726988
C         4.22280276727710   13.92991699757579    2.24402104071981
H         3.51899460769200   14.73078303860104    2.07482431008793
C         3.97491423788728   12.98489521685201    3.22462621376401
H         3.07113857339063   13.04101013757525    3.81379433772694
C         4.87923225837981   11.96371045001452    3.46075353497223
H         4.66334623607705   11.23068225426863    4.22509382372597
C         6.84334082368400    9.68699379115033    4.39877572213171
C         6.58968044976599   10.41458371875069    5.56078368088572
H         6.61597785023922   11.49694201811359    5.53159890225637
C         6.31825973357836    9.75417960604647    6.74410305119343
H         6.10257705944543   10.32236955775907    7.63866473603373
C         6.33039399285908    8.36781025644435    6.78438101693618
H         6.12640523422833    7.85501870662431    7.71303324276157
C         6.61982633456054    7.64387942095711    5.64006387814666
H         6.65339408477823    6.56546435787551    5.67481164879468
C         6.87686115358800    8.29715436608865    4.44752980826693
H         7.11817517883640    7.73076156624401    3.55899746053265

