110
CSD_code = LIMQOO | q = 0 | S = 0 | Stoichiometry = C43H61FeN5 | MND = 5
Fe        9.11034095060654    3.78380480659457    2.95522158671866
N         8.38098760793325    5.11500043311532    1.69995802234209
N        10.12138791613435    5.22685295182512    3.38518292908168
N         9.76237026779908    3.24950741227275    4.73993734764087
N        11.46927364815120    2.94628407870952    1.38700232643898
N         6.93056662343534    1.76102297083662    2.76123310310707
C         8.82683387815081    7.30093445570260    0.57114388304771
H         9.68506796549114    7.39363357601050   -0.09606352439905
H         8.66652033040438    8.26845947915122    1.04711766813505
H         7.94952800908678    7.05129991681355   -0.02175072968687
C         9.07814308243649    6.24237177174118    1.60377683174046
C        10.09790560223862    6.34789941015155    2.58472092471339
C        10.98752549993158    7.39315186602774    2.80862594223028
H        10.97240052405344    8.26114189889960    2.16711483253108
C        11.88543893446536    7.31269439546322    3.86490605354098
H        12.58062575509143    8.11945524898520    4.04494368161264
C        11.87892005151262    6.20354724747449    4.70073700009483
H        12.56148282822684    6.14408224792546    5.53494815398644
C        10.97779952168778    5.17127584358582    4.46313257015118
C        10.75935756534911    3.98778081979448    5.21573845528960
C        11.60348596423253    3.60210580182852    6.39576477820129
H        11.14579898702592    2.77634149693433    6.93673981779543
H        11.73093692198337    4.44416131441807    7.07533421607561
H        12.59528809573933    3.29014266184583    6.06281418802987
C        10.42758045494316    3.04801424626343    1.92018943319613
C        12.77044539168001    3.08317667142748    0.86534185076553
C        13.05485589550875    1.91647394668741   -0.08477599289641
H        12.96803757714538    0.96917393712660    0.44272630736847
H        12.34340145547291    1.91751537886936   -0.90755381042188
H        14.05975395031861    2.00107442950019   -0.49079905142067
C        13.75388121350018    3.07781718752610    2.04196974340873
H        14.77114731358228    3.21013006279381    1.68153454253456
H        13.51440934998261    3.88630326587684    2.73026692508009
H        13.69126038693861    2.13576659867746    2.58222516586099
C        12.84020866990762    4.42113324731928    0.11870582909391
H        12.12757360111182    4.43252982128960   -0.70316451389845
H        13.83991263098401    4.57723394405804   -0.27944255189499
H        12.59668095268595    5.23821022433410    0.79532910014798
C         7.79861157091550    2.55193224257978    2.81010063262872
C         6.01497602322368    0.70696886741969    2.58293560032698
C         5.10339404710026    0.64397331566188    3.81333419117523
H         4.40392013186156   -0.18298699558656    3.71913152607239
H         5.70249146965607    0.50022919641152    4.71061376326564
H         4.53892819167725    1.56886917123472    3.91182826216869
C         6.80423178727780   -0.60045266807279    2.44433930092716
H         6.12257983568607   -1.43767231924606    2.31598225279179
H         7.40663605291072   -0.76500141528958    3.33528679328361
H         7.46730148996821   -0.55048599600243    1.58350091312844
C         5.19966936659712    0.99205213404830    1.31660129998199
H         4.46773964608769    0.20430271706403    1.15619107717600
H         4.68338845817479    1.94512307046890    1.40803940385841
H         5.85686050925578    1.04890282986517    0.45195992737189
C         7.26510144820467    4.88647891924106    0.87616805708951
C         7.40072590105244    4.25744058623629   -0.37027181136521
C         6.26477716574319    4.00160382187831   -1.12329612650100
H         6.35871362286345    3.51094148290923   -2.08091343484707
C         5.01160572220813    4.37155255798582   -0.67497254725593
H         4.13778556222358    4.17420696065654   -1.27893024967844
C         4.88326536390881    4.99218316316304    0.55302607461761
H         3.90150512927453    5.27852753593372    0.90102732740945
C         5.99275401732835    5.25353976919477    1.34139653772591
C         8.75616495608719    3.82636149007292   -0.87710303584748
H         9.51186603164114    4.18008039623914   -0.17012428624383
C         8.82957288300809    2.29864502113905   -0.90681065112748
H         8.07621994981119    1.88558388019797   -1.57406677394133
H         8.66690597741068    1.91254781924646    0.09748557828577
H         9.80908931239520    1.97074275546198   -1.24848594417840
C         9.06329409293139    4.42144189369390   -2.25246413420048
H         8.37191198811546    4.05076885948208   -3.00527372120886
H        10.07251431736379    4.15409502867346   -2.56129439944149
H         8.98789976214840    5.50644018977138   -2.22423002528762
C         5.82526186691376    5.90638324380592    2.69328550053598
H         6.81209888115385    5.97954389838421    3.16397380731477
C         4.95126348084101    5.03571245120669    3.59613858016289
H         4.86020818850540    5.48971473168047    4.58041259606524
H         3.95236520211664    4.91560808261766    3.18250430414724
H         5.40846679274638    4.05498298416072    3.70442902887529
C         5.24864567309750    7.31650537303146    2.55617503399032
H         5.18856608030409    7.79575045511199    3.53137498392027
H         4.24967529105688    7.28826061067915    2.12667053676602
H         5.88042600144328    7.92420501408909    1.91178820930027
C         9.32334224509657    2.09347709803843    5.40620684602240
C         8.19274681187362    2.18341276898028    6.23946866227306
C         7.73055004089409    1.03747083032798    6.86629477086714
H         6.87518254437350    1.08993674667755    7.52161007329967
C         8.34599166836828   -0.18489518714389    6.66587342855645
H         7.96835822078588   -1.06869253637345    7.15985478483789
C         9.44003780446615   -0.27085181170170    5.82811483173390
H         9.90947340799220   -1.23035540162903    5.66802553547697
C         9.94956221533939    0.85578480324205    5.19946226362449
C         7.51031171187946    3.51830705179417    6.43246974784135
H         7.62345477013138    4.07331210279538    5.48910929353285
C         6.01888980715716    3.39447352858699    6.73813174698932
H         5.55314652722179    4.37608474352661    6.68630339242170
H         5.85161781802799    3.00316688931393    7.73945846412779
H         5.52938113834485    2.74354419327870    6.01904552104251
C         8.19474698840870    4.31429349873142    7.54830667070292
H         7.67544190304715    5.25719371721534    7.70903193162546
H         9.22622507934832    4.53289005428496    7.29091518107554
H         8.18059564694165    3.74887410911775    8.47892068430745
C        11.13664607666637    0.72869178193920    4.27431013573777
H        11.42470782804642    1.73154544246086    3.94726526063027
C        12.33423568096764    0.08236105919538    4.97372713532316
H        12.12305831951150   -0.95037498080423    5.24010483181806
H        13.20235623759592    0.08908525334202    4.31670017429302
H        12.58651910438187    0.62393818116228    5.88276591222324
C        10.73546783485852   -0.06534705396151    3.02975544444631
H        10.40277875911842   -1.06598670235835    3.29627896066044
H         9.92794137351167    0.45271367867702    2.51697419223920
H        11.57911781843798   -0.15366205307616    2.34821712769368

