116
CSD_code = LIMQUU | q = 0 | S = 0 | Stoichiometry = C43H67FeN3P2 | MND = 5
Fe        8.13412627990313    4.65496639022381   10.01551233226287
P         8.04845168007800    5.20206001995577    7.90128168784692
P         6.04085772100019    4.02112010885821    9.87760309216139
N         8.00151300147385    6.55318977085334   10.87531164141526
N         8.32671834291823    4.27066533820109   11.80017221312928
N         9.30802251765883    2.86147251560725    9.98116130001622
C         7.32029361235948    7.62302093952605   13.05214694354102
H         6.30905561509581    7.47591188969386   13.43640064985682
H         7.36297176480744    8.56338363093056   12.50991209519269
H         7.98374998765236    7.69688821483640   13.91350218167063
C         7.70949188714316    6.46514234741815   12.17116679458928
C         7.87689940271890    5.17437433811972   12.72974862318651
C         7.73930282118672    4.81729377700387   14.07074833949145
H         7.33084956567215    5.52243799926052   14.77783781516417
C         8.15372950894224    3.56440506789675   14.48934646464185
H         8.06059873485772    3.27645119862951   15.52586064394399
C         8.72084252650303    2.69256503221738   13.56967778108919
H         9.08784077669552    1.72954884132043   13.88744865956240
C         8.80240190729277    3.06734204601247   12.23155776879720
C         9.38493208334776    2.30756708984899   11.17439663686439
C        10.07837538397813    1.00979888568371   11.48418075698322
H        10.61240114235939    0.63508382276601   10.61489476523161
H        10.79241008715899    1.15207426398252   12.29516959215126
H         9.35452082250047    0.26122177918675   11.80817643268247
C         6.24571504966873    5.24291805692444    7.37375130657695
H         5.88695429155666    6.24503557539289    7.60837598375838
H         6.15386850471025    5.10360425765869    6.29389713875560
C         5.42071445142166    4.20739112477825    8.12555224954213
H         5.56103907273103    3.22530369043030    7.66464542988273
H         4.35454165159934    4.44103083980186    8.08987875758470
C         8.78175924070863    4.07468203259537    6.61423013694445
H         9.85337222749384    4.06211343911943    6.82622047699077
H         8.41601982342300    3.07404171756775    6.85129491233064
C         8.56000291559843    4.36660802042830    5.13509244584390
H         8.96358088531339    5.33462464204925    4.85088823286523
H         9.06818820494285    3.60522641874588    4.54449846291969
H         7.50600562873550    4.34129177303601    4.86842513399611
C         8.52568901883372    6.84881289752811    7.18399780584384
H         8.09814464133375    6.95880966218166    6.18346386781381
H         8.08233709683847    7.60547327677824    7.83201934663146
C        10.03362124081421    7.04072655249154    7.16983518159446
H        10.43600326457214    6.76700895243358    8.14169758805315
H        10.28688955525480    8.08076935149817    6.96845947960679
H        10.50712984713125    6.41973104155757    6.41308287184475
C         4.86859358390443    4.99529287744513   10.96199241456543
H         5.36899194678625    5.92560026855514   11.22742684503735
H         4.79242801583341    4.41364332070924   11.88631164832809
C         3.47597778407568    5.29226611823406   10.42384661994820
H         2.87677355664304    5.76436914918380   11.20150847489954
H         3.52127138628476    5.97324943368840    9.57722715812367
H         2.96289605077902    4.38401331290082   10.11232951803430
C         5.26972445628112    2.35683072295001   10.22131355609970
H         4.18134585816003    2.47745979691698   10.20990439424560
H         5.53713685875642    1.68264540390710    9.40757092780995
C         5.71676666261424    1.75411768219904   11.54633136670142
H         5.19572256525841    0.81553654418784   11.73333356745552
H         6.78577091376034    1.55816729062817   11.53434078569353
H         5.51482487473789    2.42474567103325   12.37989657615926
C         8.26578778105406    7.85528396450364   10.39977218017203
C         9.58553568950836    8.33045914817071   10.55359332980688
C         9.87620601938655    9.64295091056500   10.21710263869273
H        10.87611263666666   10.02261098931413   10.35500321783116
C         8.90259911034125   10.48940556629230    9.72344857988767
H         9.14113017515430   11.51607470754599    9.48688510340362
C         7.62407400554936   10.00934361602639    9.52782834982476
H         6.86890836912571   10.67071110066549    9.13153346184566
C         7.28648432521651    8.70160718239130    9.84973253258387
C        10.67930461694530    7.42304703104328   11.07335582467010
H        10.39764244425499    6.39108017680477   10.81215055679425
C        10.81429454546931    7.50738344329106   12.59749478616760
H        10.90700334723333    8.54516589405751   12.91393882459680
H        11.70262060840737    6.96686811752211   12.91934663105453
H         9.95680996787049    7.06418294090354   13.09077519591780
C        12.04240240262869    7.74036061197278   10.45359364275932
H        12.73448050865631    6.92722216319242   10.66208198239721
H        12.46520385186743    8.64589668334340   10.88401539499670
H        11.96936366791653    7.87184816471343    9.37688617866716
C         5.86943264585291    8.23248984422054    9.60474918472781
H         5.89108169822950    7.13735727098730    9.60734208565502
C         5.32480346633878    8.71018367939496    8.25306661680607
H         5.06393440174921    9.76532820371749    8.29032444847902
H         4.41876512544136    8.15985549329681    8.00208920025633
H         6.04966933735515    8.56834656824569    7.45498538421054
C         4.92015536754982    8.72357734981101   10.70205690060639
H         3.89317191643241    8.46361368457841   10.45262553553893
H         5.15862510376164    8.28090682123640   11.66296071494335
H         4.98639056711098    9.80586791144496   10.79837552437006
C         9.96688785667687    2.21176112795280    8.91955010222890
C         9.43041637256946    1.08022628132324    8.28185501205460
C        10.15439341917340    0.46403272769863    7.27085412832062
H         9.74867748549992   -0.41034571755809    6.78381684662768
C        11.39593092355832    0.93113930085318    6.89262127834604
H        11.95722775055410    0.42511265729369    6.12072997012215
C        11.91569267339648    2.05342873174860    7.50914572596233
H        12.88638130387304    2.41169620522514    7.20597424591351
C        11.21637158070764    2.71297792952166    8.50761533406576
C         8.08319158539927    0.51124593471384    8.66208340364055
H         7.67516152072857    1.13162378242786    9.46383499940585
C         7.11632827480354    0.54975995356845    7.47492034390776
H         6.94697609518781    1.57275216835518    7.14761811691103
H         6.15919940948217    0.11036363801620    7.75289202285921
H         7.51208743638045   -0.01394871385274    6.63332868702162
C         8.19921864350604   -0.93287795269709    9.15949539633039
H         7.24376513968951   -1.26729926796469    9.55983133506785
H         8.94974479333779   -1.02425852903419    9.93888421293540
H         8.47695443428586   -1.59801395917972    8.34494735206372
C        11.77469187303626    3.95665607792512    9.15708314293522
H        10.91199006219170    4.60023798090433    9.39433339210264
C        12.48753513653989    3.61138379317868   10.46798970589231
H        12.94896021956785    4.50172412504365   10.88999438714222
H        13.26555680226802    2.86974105561661   10.29278877273117
H        11.78568675640049    3.21649592711022   11.19610439257182
C        12.72942412332247    4.72205196468233    8.24128002536012
H        12.92360937597516    5.70947720047671    8.64978971258544
H        12.30476836397348    4.84274268929127    7.24764336523199
H        13.68421858505642    4.20735742451132    8.15342470806082

