87
CSD_code = LIMRIJ | q = 0 | S = 0 | Stoichiometry = C40H40N6Pt | MND = 4
Pt        5.07230854742582    4.86939284898114   22.52849454055194
N         4.99967350283222    6.86170129439787   22.65731876864795
N         4.37755080350216    5.26111117218561   20.72397197829323
N         4.01754518441713    4.51482548611679   19.68459825160405
N         5.16123052262857    2.87802678731336   22.39358389457822
N         5.75933960959202    4.47712344284025   24.33618993378558
N         6.07692450960108    5.22029602963298   25.39163568107929
C         5.35885062656803    7.57342641202838   23.70086250839122
H         5.71322510490777    7.02449442083473   24.57153372271557
C         5.29673903572045    8.97999794153931   23.72371874307816
C         5.68748191298917    9.72804327420765   24.85322718060717
H         6.04123094959962    9.19904467490854   25.72526506589814
C         5.61480012439357   11.09268497775557   24.83084794282196
H         5.91307936650252   11.67001810558767   25.69304702953582
C         5.15085757747315   11.76176724423991   23.68422865707251
H         5.10279305125827   12.84087524418440   23.68913555058948
C         4.76386408770724   11.06404977096421   22.57453136105456
H         4.40717032758195   11.57656835169122   21.69319288611547
C         4.82537059664339    9.65449185254484   22.56378249083673
C         4.44494616878975    8.86953375698179   21.46330165429039
H         4.08146551657904    9.33554918025404   20.56096260307755
C         4.53634538629953    7.49632661740379   21.52825930634302
C         4.17946664536462    6.59693354054667   20.47044823402107
C         3.64581006628389    6.68776315171390   19.19330643153165
C         3.57289358872306    5.35636704539231   18.75993009338662
C         3.06698622589181    5.36107910818951   17.35006467896438
C         4.25264623455721    5.95823196648819   16.54594656246352
H         4.06602119472084    5.88134525685840   15.47500463354367
H         5.17164921772974    5.41407282223277   16.76379418558199
C         4.32678763051789    7.42630719591247   17.01323540410174
H         4.16934692431083    8.12274582304052   16.19024831566655
H         5.28875865111392    7.65990183783926   17.47051665474417
C         3.18685208873818    7.53299835947746   18.05233705299986
H         2.87021292532490    8.55048672215718   18.27523429989913
C         2.10797343557293    6.59349366328100   17.44147285438270
C         0.92413031519771    6.37101127100818   18.38321079381116
H         0.40150485306218    7.31150684329022   18.55002106462633
H         1.24246693809371    5.98198549120978   19.34660335834026
H         0.22212695198812    5.66549210571575   17.94388847471315
C         1.54654728459651    7.07588230187784   16.10702153432679
H         1.03985235713900    8.02907047373149   16.24934490535179
H         0.81716782192159    6.36056648510816   15.73212011560631
H         2.30981965875487    7.20865221030665   15.34863745284901
C         2.51879968582994    4.06039745811958   16.80622559371515
H         3.30409689221032    3.30752031966145   16.79610093263405
H         2.14865953165224    4.19156946648571   15.79131366259276
H         1.70835952322014    3.69951986054442   17.43499011504669
C         4.84380443587188    2.16879706302762   21.33489668927979
H         4.48664448941586    2.71742004552375   20.46516467633531
C         4.94730860747030    0.76495632478133   21.29731137209145
C         4.60651813289917    0.01977006443050   20.14988100876131
H         4.25161624708285    0.54811760066806   19.27792261247558
C         4.72843983135068   -1.34155764824865   20.15486893506852
H         4.46987499688874   -1.91654083857127   19.27839870352696
C         5.19265963614306   -2.01029120303948   21.30157747860673
H         5.28193817682042   -3.08660234564344   21.28197409540787
C         5.52852455505323   -1.31558991439951   22.42964231916845
H         5.88495751212549   -1.82737297733471   23.31152069665261
C         5.41512237582360    0.09048543041407   22.45870652519227
C         5.74264551147529    0.87221488665293   23.57829444758281
H         6.10199077469663    0.40621528256857   24.48230836894217
C         5.61131046508495    2.24275445952793   23.52754938929006
C         5.92165742394333    3.13903740483903   24.60242465930416
C         6.35417818502380    3.04112579404224   25.91671866146296
C         6.43248328463978    4.37269541334581   26.34869485475973
C         6.96273908442283    4.36803150091032   27.74952593801339
C         8.44293367962134    3.93596117736926   27.57045209202187
H         8.98790096364963    4.03693277343740   28.50873949981737
H         8.93483399142540    4.56660730048618   26.82990433493510
C         8.35678473848148    2.46642251104059   27.10999103387908
H         8.81552851530211    2.31817670661578   26.13189611787000
H         8.84317325496181    1.79149394405836   27.81362972315791
C         6.83599938953036    2.19603209278464   27.04841488552191
H         6.56248128375987    1.14228495934333   27.04102823120899
C         6.31318397994328    3.03571993372684   28.24912784277920
C         4.78609936077132    3.08915665051881   28.30408869554292
H         4.46146051135799    3.73363189032681   29.11822049532703
H         4.38687595582090    2.09167243452823   28.48016283538898
H         4.36209751227055    3.46784046583393   27.37805750178167
C         6.80296387820586    2.55002432150569   29.61033957960857
H         6.41840541382893    3.19914032600902   30.39452751037610
H         7.88398683454508    2.52881352537817   29.68941965642117
H         6.42910977950108    1.54391707949242   29.79368702389270
C         6.76062284072946    5.62101543419033   28.57242824798795
H         7.27892256827027    6.45482607292540   28.10370088044955
H         7.15226594888657    5.48891226841946   29.57910335154915
H         5.70322671760521    5.86710212200266   28.63309187284875

