57
CSD_code = LIMREF | q = 0 | S = 0 | Stoichiometry = C26H24N4O2Pt | MND = 4
Pt        7.55699741536170    4.32323659888159    8.75198747292303
O         9.45749022743156    5.05798517355801    8.94838063680544
O        10.85980605551755    6.48197731894186    7.97172670590963
N         7.53436619761730    5.54454642578008    7.20522744685647
N         7.64370047728087    3.10467144597250   10.31147692737621
N         5.76491641710538    3.56561028572645    8.64233797616938
N         4.74883052617548    3.75624884858888    7.80997868216524
C         6.53050675348919    5.75025308259794    6.35162517672543
H         5.62105760366246    5.18597503357010    6.54116640852479
C         6.64758244531224    6.63058150241800    5.28938953263998
H         5.81381756002143    6.77071879461476    4.61996936651353
C         7.83756302901713    7.32007395906264    5.10195879057104
H         7.95260315228052    8.01019422147983    4.27973354518988
C         8.87485756267359    7.10256668288687    5.99317679837143
H         9.82898414982960    7.60004965061100    5.91411766853574
C         8.68876780594326    6.20752998319142    7.03413504733247
C         9.79033276709708    5.91330113243164    8.06227860587157
C         8.68592952745802    2.98096721423263   11.09925808494942
H         9.54739116111455    3.59736140492049   10.87097502105341
C         8.71211333996657    2.09866406850717   12.19592935162716
C         9.83665305665856    1.97597688286789   13.03808796976922
H        10.70698161744525    2.58060578223843   12.83246293385019
C         9.81355813184516    1.10458255504070   14.09082407389622
H        10.67249909137259    1.00793836785663   14.73736090885444
C         8.67166009145743    0.32393648187502   14.34356971138728
H         8.67629398950040   -0.35758391247110   15.18128803159018
C         7.56613578696128    0.42116603729936   13.54555011838159
H         6.68817147312702   -0.17719350835390   13.73864369873834
C         7.55448698887436    1.31053716511578   12.45044198783045
C         6.45300045058075    1.46292848369409   11.59113176078720
H         5.55518391415496    0.88657324640153   11.74894077528780
C         6.51502200261303    2.35275204352466   10.54205072480772
C         5.47009299673407    2.61525906238837    9.59431325920470
C         4.18413141243327    2.17493457273824    9.32356391882356
C         3.79157776093704    2.92710862158876    8.20525979977529
C         3.01078786738979    1.33770102655522    9.70819881338621
H         3.19857628841446    0.46894263068112   10.33610723872634
C         2.41201413369751    1.05630663943916    8.30004002681560
C         2.37360357504434    2.56471436998455    7.88694024974930
C         1.57317609474764    3.18246901523195    9.06486142811273
H         1.82428550629223    4.23623040897414    9.18311901930753
H         0.50244426685136    3.11401684043849    8.87541848200626
C         1.99512403718668    2.34735320295687   10.29073157522703
H         1.14873288597233    1.82988186179981   10.74064980266092
H         2.46094076159568    2.96181225952854   11.06152943287326
C         1.05441292789374    0.36066433168306    8.32943874710627
H         0.69065378008557    0.21812834949294    7.31401461958214
H         0.30498575287679    0.91563803399805    8.88216246755796
H         1.15877075457849   -0.62051985117292    8.78975788154879
C         3.34150936232519    0.21335247078389    7.42656143108340
H         2.91597652556573    0.09445270104479    6.43265946008794
H         3.46481641992169   -0.77573544212016    7.86409972635858
H         4.32342497370903    0.66776075704085    7.32629634094155
C         1.85843881015166    2.92300013076112    6.51090103665183
H         2.47965950884385    2.46751479721490    5.74380410116664
H         1.88883742495175    4.00210669049640    6.37803216182542
H         0.83236540285835    2.58417406540703    6.38385703813208

