55
CSD_code = LIMVAE | q = 0 | S = 0 | Stoichiometry = C26H24Cl2P2Pd | MND = 4
Pd       -0.44390811083253    3.21500180861418   11.35957104934016
P        -1.97389703112180    2.69379968776731    9.83128360027819
P         1.09422804092194    2.80363477743138    9.78300285801731
Cl        1.07616446030348    3.93078105945185   12.88114561262866
Cl       -2.21164430210805    3.30481322440876   12.78831056056771
C        -1.11487951693876    1.95088945134263    8.35808739169362
C         0.21057151743556    2.67826128039254    8.15373582365894
C         2.68292008014941    3.59493302835387    9.43125710084987
C         3.58815464077332    3.62233578454307   10.49148554129614
C         4.82531210704468    4.21410059941608   10.32575019484609
C         5.16326065596328    4.78504664192172    9.10838918513796
C         4.25753594578290    4.77470458772545    8.06052704771062
C         3.01468014108669    4.18630952752826    8.21741961554681
C         1.56543212280965    1.06933549283559   10.08725997453508
C         0.98493255783355    0.39691065973535   11.16184519807742
C         1.30451773915031   -0.92871080124517   11.39947609489539
C         2.20359792117207   -1.58410943094161   10.57328452699799
C         2.79178414329178   -0.91415133585248    9.51160921421485
C         2.47648741955426    0.40975419723945    9.26724490268027
C        -2.56734659472322    4.27427520755475    9.16313932228011
C        -3.46938650096846    4.34253631302365    8.10418217964487
C        -3.85887767369151    5.57404195764441    7.61090328976693
C        -3.34997039965236    6.73838245272907    8.16608671713006
C        -2.45116665478852    6.67530426810598    9.21876093966725
C        -2.05768091041123    5.44637401627187    9.71957340973102
C        -3.43053384366610    1.66051818142229   10.10157726979044
C        -4.68472495132879    2.22513835709696   10.30866573476833
C        -5.76064995305834    1.41327470574236   10.61770331867395
C        -5.58926798398979    0.04400281310442   10.73760360881648
C        -4.33389571940930   -0.51716078609817   10.56434153702332
C        -3.25374225710025    0.28763326441820   10.25632215536390
H        -1.74952879895597    2.01639636624892    7.46934863551218
H        -0.92940163363099    0.89382799283491    8.57479437632410
H         0.83659245679904    2.16231778017741    7.41915609516789
H         0.02197291217280    3.70076974055732    7.80636360448666
H         3.29470790230764    3.19991064671702   11.44372845906163
H         5.52552936384606    4.23661924377484   11.14694060977052
H         6.13058576545694    5.24709922121757    8.97777928410716
H         4.51770827165548    5.23002383925787    7.11595346743315
H         2.31171693097965    4.19158513464656    7.39710465045770
H         0.28969751807821    0.92620932931844   11.83339611031896
H         0.85715005848591   -1.44916455339581   12.23316698126352
H         2.45413492011572   -2.61744281065592   10.76173783035235
H         3.50056339866782   -1.42485715387726    8.87632010451467
H         2.94267929352353    0.94140868223334    8.44834595752603
H        -3.87009467145878    3.43140542907485    7.67956954213130
H        -4.56294931845958    5.62815369209891    6.79348361083347
H        -3.65919527563194    7.69760798195671    7.77834087466122
H        -2.06031489209537    7.58380733851525    9.65168442524302
H        -1.35694654944466    5.39196272187605   10.56701811628061
H        -4.80895812770764    3.29644568627174   10.24190076725978
H        -6.73415089915656    1.85235674396586   10.77736029365413
H        -6.43112570344892   -0.58576576069868   10.98389253755271
H        -4.19637296128648   -1.58191694076861   10.68276180957398
H        -2.26560705032749   -0.14332134299876   10.15320688084602

