54
CSD_code = LIMXAH | q = 1 | S = 0 | Stoichiometry = C19H30ClIrN3(1+) | MND = 8
Ir        3.46486599380685    6.65349161280566    3.79255184904424
Cl        4.62622273132396    4.87914123021623    2.73296153868444
C         9.23965886603106    8.98720874049943    1.84184442803206
H         8.92732178413200    9.74502244186905    2.55624831092532
H         9.62111736161999    9.49749631787063    0.96181326403598
H        10.05335255395916    8.41211754236732    2.27699288357599
C         8.08467810406020    8.07151038799211    1.45303173092264
H         8.41586159634818    7.40927395782913    0.65221334652009
H         7.25973577338120    8.66998577010644    1.06326935165649
C         7.58907671798131    7.20072240855477    2.60634553327947
H         8.43051013991805    6.64261614968684    3.02085610704906
H         6.85881035177429    6.47934314454967    2.23561949268363
C         6.92538706991051    8.01796045420426    3.72040371126259
H         7.63803709093470    8.71438913337174    4.16600108130712
H         6.07586860728876    8.56987111477432    3.31867999748764
C         7.24413499948259    6.55649900006852    5.69788260333338
H         8.27978734740250    6.81218618297377    5.79201860064892
C         6.49854261623980    5.68687308625131    6.41278589422973
H         6.76668802960090    5.04696385772348    7.22668977797697
C         5.19238220493821    6.66028481949357    4.84937522929013
C         4.09907425700180    5.00455007777896    6.12505180059533
C         4.12076289140886    3.95599654181783    7.17458445446033
H         3.14341071770430    3.49350269867513    7.27912022011321
H         4.41717011359607    4.38159915306072    8.13237210024438
H         4.84466912941236    3.18497929574106    6.91049876058335
C         3.19965850359500    7.98972425063736    2.06907974112595
C         2.93432438146292    8.77755450611352    3.23563686337208
C         1.84491105192280    8.16308017011298    3.93053363058673
C         1.35410791980915    7.06700447900340    3.12028999787615
C         2.16258673972272    6.97312829803877    1.97497563295375
C         4.10988969417869    8.32893306318512    0.93502322829341
H         3.51817661611545    8.70046252603089    0.09758326872859
H         4.64958902838310    7.44740757376345    0.59539537729973
H         4.82791862667807    9.09595833027305    1.21062518626876
C         3.54340257494197   10.09109897100221    3.60150223064722
H         2.81771276077023   10.88085868786894    3.40302574513404
H         4.43366357119201   10.29922848414246    3.01517266303510
H         3.80113742172590   10.13573711335884    4.65744848735612
C         1.14685104498606    8.74419625491457    5.11300471243496
H         1.83955521297792    9.28453866599443    5.75321219707063
H         0.65123003583833    7.97740510858838    5.70308690015464
H         0.38532108388747    9.44693296439685    4.77085123897916
C         0.11000520434123    6.28930482435918    3.39445131534971
H        -0.73932711566564    6.78466954752607    2.92201425584872
H        -0.09223446524365    6.22721736689853    4.46125446596073
H         0.17747198024202    5.28117081721914    2.99198006697119
C         1.96900099782917    6.09242431968812    0.79121951887290
H         1.19186415312988    5.35442485616339    0.96738500775474
H         2.89164893373693    5.57198728629162    0.53919982637697
H         1.68351167855564    6.69998497810367   -0.06818298332406
N         6.43490333521811    7.13893187998004    4.75243915445843
N         5.23005103476394    5.74599732586987    5.88160232950701
N         3.10874643423838    5.31630136071845    5.36465330282126
H         2.26249451139955    4.76875086946155    5.48812457012841

