97
CSD_code = LIMYEM | q = 0 | S = 0 | Stoichiometry = C52H40O2P2Ru | MND = 7
C        23.00044844225139    3.82363692029085    3.30557724894295
C        19.66897527058405    4.88053572703712    2.48459914682078
C        20.60276530329086    5.85918244010037    2.95504357827112
C        20.77200218378258    5.80658255806565    4.38941486476281
C        19.75853914077185    3.39077711178655    0.55878256043737
C        19.34713107743636    4.63426615488420    1.04826221261429
C        18.57875091195623    5.47179563263057    0.25556008604512
H        18.26763740697499    6.43525991669100    0.63357176861191
C        18.21479313474897    5.05939457656056   -1.01595374668517
H        17.62286270063910    5.71286530268573   -1.63981779751189
C        18.58871255122468    3.80989283032703   -1.48668867867988
H        18.28327812719466    3.49299700722253   -2.47326107981990
C        19.36073813016466    2.96945002177067   -0.70264437516957
H        19.66561278288543    1.99710991055747   -1.06582680927270
C        19.98560095093198    0.85985539270065    1.70494501734097
C        18.89069832488124    0.82783123732969    2.56497484945432
H        18.64537313937974    1.71849735929731    3.13115334680095
C        18.13479426634327   -0.32015739487832    2.68807909895804
H        17.28646814006928   -0.34188059719712    3.35647962006670
C        18.47050663778624   -1.44725732786425    1.95436268947483
H        17.88458224309233   -2.34947914446245    2.05185646596349
C        19.55492006449827   -1.41741119596155    1.09428193715422
H        19.81169094473876   -2.29530653911407    0.51869839955886
C        20.31461670315305   -0.26768550651471    0.96391076669351
H        21.16017697191060   -0.24960081960451    0.29048057966410
C        22.30776906133775    2.10530148697598    0.57337818055459
C        23.24016711984548    1.17660287035935    1.03298605738335
H        23.04658959916431    0.65196314736835    1.95929807690122
C        24.39427435562235    0.92775345930840    0.31721376924522
H        25.10780653905741    0.20213937205393    0.67945747212114
C        24.64071636601451    1.61765509330530   -0.85960589973088
H        25.54540963364242    1.42876329521317   -1.41825506512471
C        23.72996652956736    2.55695625351336   -1.31116526927096
H        23.92453179405804    3.10410060406417   -2.22232078990400
C        22.56945102833420    2.80562328616172   -0.59894152212624
H        21.86822590687196    3.54488586805326   -0.96081548323059
C        19.92486933276774    3.31947883026445    6.68395959762981
C        18.58227053442741    3.35437907828291    6.30822685549679
H        18.28821030522760    2.95230668309317    5.34829409345233
C        17.63993319664852    3.92387765977627    7.14301631081190
H        16.60115558667673    3.94803686560321    6.84602036557650
C        18.02837628664257    4.47488829810548    8.35453188888441
H        17.29232784941070    4.92586002906865    9.00421778817257
C        19.36265235598594    4.45690656113256    8.72466011478343
H        19.66930403007641    4.89582639694831    9.66325373313645
C        20.31147038869588    3.88543216674125    7.89431293990410
H        21.35247140595903    3.88583750980205    8.18367842010307
C        22.63911815426661    2.56389193408057    6.49657190985796
C        23.50705234689560    3.65144632097242    6.46056063850549
H        23.27691833880222    4.49143358551546    5.81724807361110
C        24.64691707853971    3.65890066274885    7.24274936303472
H        25.31223949679995    4.50886075804564    7.21094765626742
C        24.93200789871677    2.57728135310890    8.06073465592618
H        25.82523621655845    2.57842193224415    8.66809038898824
C        24.07062587823761    1.49283974846661    8.10001328163635
H        24.29171459704416    0.65007270676982    8.73904330716597
C        22.92373827412136    1.48431210207571    7.32610043925649
H        22.25070948961266    0.63916009534530    7.36351390609182
C        20.68209208856645    0.88339085304094    5.37658530203116
C        19.63026930865797    0.26308781384244    6.03637632169648
H        19.00463812199212    0.82639794809300    6.71424969926132
C        19.38670367179040   -1.08409986567183    5.82343327596648
H        18.56416612833028   -1.56498201760406    6.33327639752151
C        20.18927022534847   -1.81577602473329    4.96582216854758
H        19.99006028615143   -2.86456985686065    4.80266694879609
C        21.25053087751662   -1.20320979733592    4.31594149766563
H        21.87972486755543   -1.77536525246161    3.64976799480342
C        21.48867760097830    0.14043162145910    4.51739376078934
H        22.30463275339971    0.65504129323524    4.01792476534252
C        21.21824147584939    6.82209969110493    2.03114030398563
C        21.07584081012038    8.18802692948624    2.26871840971274
H        20.55742460345562    8.52024450274973    3.15703264028719
C        21.59505157111358    9.10855817213660    1.37844069960608
H        21.48105389396756   10.16502568611386    1.57371823480873
C        22.25814881029875    8.68198717786214    0.23967323319675
H        22.66225806691409    9.40396693516499   -0.45455946995683
C        22.41188964860180    7.32618245453027    0.00039792839440
H        22.94203694568098    6.98726663147445   -0.87800693447491
C        21.89854648451144    6.40250822761335    0.88987326715678
H        22.05237154114490    5.34132720064063    0.72697981471511
C        21.77969207135086    6.58393113972224    5.10475821559582
C        23.02111606535558    6.90953558452942    4.54800295024447
H        23.25884605709537    6.58903743538638    3.54324699163085
C        23.95823316151303    7.61313429669271    5.27754560078476
H        24.91096766822472    7.85418361269884    4.82818859872086
C        23.68851556009173    8.00347139146072    6.57980798870598
H        24.42555229052958    8.55235055017812    7.14760561591719
C        22.46851960625504    7.67854974506242    7.14938939334828
H        22.25062002072601    7.97308269565994    8.16635871586292
C        21.52596687743405    6.98002081538476    6.42157112676306
H        20.57688975896864    6.72548384722112    6.87490613749446
O        24.13962054176969    3.78250400502232    3.11173977490819
O        19.07315953840421    4.11603218126584    3.32911901871847
P        20.88404451343471    2.44595301390251    1.65300931110716
P        21.12295135878970    2.65132218149300    5.48679569704658
Ru       21.17672399877739    3.83474221167703    3.50221217182098
H        19.83594860302243    5.69727737987214    4.95517942584941

