55
CSD_code = LIMYEN | q = 0 | S = 0 | Stoichiometry = C18H30N2S4W | MND = 6
W         3.97863389766949    3.86232300710103   -0.01754505071305
S         5.74632212397840    4.51478485542153   -1.52896735519612
S         5.45354966371930    4.95431879373299    1.55211312143881
S         2.48772768622151    4.47459532741982   -1.81613256666126
S         2.19299711136701    4.85278342130183    1.27311772503075
N         3.81648026180011    1.95733497509506    2.53627108741394
N         4.17868160727326    1.35668543818410   -1.98193612712607
C         6.90705527217291    5.45443260995123   -0.65376615103488
C         6.77952713145097    5.64562398991109    0.68050711667813
C         1.14665207706797    5.34575192499530   -1.15399237817921
C         1.01775029387322    5.50782698214374    0.18397037842888
C         8.02557652270464    6.04954443541053   -1.45408399592514
H         8.01969723111828    7.13668056491207   -1.37259747444976
H         7.91778615412348    5.77441308300795   -2.49970455328690
H         8.98819370430144    5.68934008592305   -1.09052357313518
C         7.74562734711869    6.46913017912906    1.47693759209175
H         8.74921124307581    6.04822563440665    1.41205874094169
H         7.43906789274945    6.49179112689092    2.51913951572123
H         7.78317149602202    7.49050214066135    1.09758484812608
C         0.16865734078559    5.91415881411613   -2.13698420929021
H        -0.82558257196885    5.49963879387825   -1.96872537209532
H         0.48324228809265    5.67633854021330   -3.14952125365478
H         0.10461150612386    6.99739343428559   -2.03206315974211
C        -0.11446830687288    6.27055992994919    0.80209412991338
H        -0.12183297616307    7.30132618420551    0.44685489072366
H        -0.01091463359830    6.27217656712599    1.88376546025537
H        -1.06955856092951    5.81600597873905    0.53811863646846
C         3.87981980949494    2.61170191109529    1.56885796504646
C         4.10422112303503    2.24084062376488   -1.21969172461361
C         3.70486673575182    1.54026380047033    3.88096573435800
C         4.79136701564623    2.26155335440131    4.68442212331622
H         5.77777649451784    1.98994806248270    4.31585038900573
H         4.71862498736820    1.98955587287937    5.73414771368415
H         4.67426297085327    3.33809793003620    4.58530933695987
C         2.31021326478363    1.93812400983060    4.37391188704126
H         2.17191218483280    3.01176742311979    4.27016846834328
H         2.19399239711948    1.66286999523336    5.41881319910772
H         1.54384828605549    1.43552352147201    3.78843463458934
C         3.89570994286384    0.02292712469767    3.93612202505942
H         3.13951917340820   -0.47566229961711    3.33410350616569
H         3.81158221691376   -0.32404089259894    4.96248513251869
H         4.87691764940945   -0.24846730155153    3.55347214559635
C         4.28916500816998    0.60812848604180   -3.17456442439200
C         4.23132500319420   -0.87971826391610   -2.82161562268297
H         5.04283547657059   -1.13973702650950   -2.14584920747407
H         4.32120736873056   -1.47842778164341   -3.72403265011687
H         3.28742005571752   -1.11669002180918   -2.33610503711856
C         5.62849928188965    0.96817714583789   -3.82489948135734
H         5.67496710282156    2.03845828196304   -4.01168240574042
H         5.73839960839927    0.43648466166631   -4.76636454826787
H         6.45257878323231    0.69905828987527   -3.16832213588681
C         3.12074292835148    1.00471199338917   -4.08221215131384
H         2.17309739540945    0.75891861891853   -3.60873395852025
H         3.19060519463009    0.47585272966796   -5.02909752448608
H         3.14205973744677    2.07579293262289   -4.26888341148940

