54
CSD_code = LIMZAK | q = 0 | S = 0 | Stoichiometry = C22H25OPS4W | MND = 6
W        -2.52226206990551   -2.25996041940386   -2.96588746402890
S        -3.22452819572035   -0.22326462500339   -1.90089012882368
S        -1.26014560036274   -0.71660859331553   -4.29444301473013
S        -2.61642234306520   -3.13861716575488   -0.73380094144504
S        -0.71974564147203   -3.84478912834977   -3.10432702582434
P        -4.88665835122779   -2.72514069983045   -2.81562976815648
O        -2.73888645819027   -3.55416835266520   -5.80363009341272
C        -2.32300259699234    1.08153363816944   -2.59236247207835
C        -1.48210607651337    0.87002091361711   -3.63222649909138
C        -1.38642858884723   -4.33492772568346   -0.54653360497013
C        -0.57177492452394   -4.65143716442595   -1.58143497697855
C        -2.52563758644733    2.43149372541038   -1.97495043129939
H        -1.57891337931021    2.83458236231371   -1.61601741319700
H        -3.21675972656852    2.35543402267498   -1.14001574253149
H        -2.93260095850866    3.12785771949902   -2.70829623601239
C        -0.68411286995073    1.96950829412965   -4.26369581621521
H        -1.34194887830137    2.75703207277591   -4.63077457687658
H        -0.10687423040041    1.57360054584205   -5.09448112544038
H        -0.00060284444241    2.41126295486721   -3.53854386910214
C        -1.27044462361294   -4.97319617805164    0.80368278928212
H        -1.44579243911927   -6.04667698880669    0.73063622500626
H        -2.00077564968330   -4.54088537202936    1.48236746922445
H        -0.27271272803399   -4.82189718302017    1.21534233795505
C         0.51813792178374   -5.67305525678013   -1.47073102693322
H         1.22711742610854   -5.39522243060234   -0.69062332931878
H         1.04735796820887   -5.74944128056180   -2.41637919768943
H         0.10141092132146   -6.64798341189434   -1.21789766007094
C        -2.66930386418274   -3.06955362233475   -4.76385979832845
C        -5.89160936504253   -2.25370248576949   -1.36151420390463
H        -6.87970596722328   -2.71072098601761   -1.42011379405902
H        -5.97889265510240   -1.16685864146491   -1.36020952220485
H        -5.38190183266328   -2.56262905677766   -0.45010993481640
C        -5.15157944640953   -4.51233931989657   -2.98908430900162
C        -5.27281543762039   -5.08274561763730   -4.25367745814038
H        -5.29832205857105   -4.44725283018710   -5.12859024139959
C        -5.36368973958024   -6.45596582024844   -4.38597789524196
H        -5.45901841474125   -6.89445804750480   -5.36823002405929
C        -5.32370534763538   -7.26788101904946   -3.26378474824756
H        -5.38923403603139   -8.34048559704298   -3.37106282642068
C        -5.19024198988448   -6.70465486815952   -2.00499204078774
H        -5.15115052964153   -7.33759831135108   -1.13037893860616
C        -5.09970447849230   -5.33209761794861   -1.86528249917186
H        -4.97625738893929   -4.89205106514863   -0.88554661684293
C        -5.84274929862663   -1.99131373133128   -4.17454076860768
C        -7.15278470953244   -2.38716134232746   -4.42908641314172
H        -7.60150305905490   -3.17034364027380   -3.83269455048276
C        -7.86533582363739   -1.79222068057250   -5.45314939472138
H        -8.87951845229273   -2.10422182680107   -5.65528235691826
C        -7.27912190569531   -0.79799779763828   -6.22141665493053
H        -7.83884679373968   -0.33654680212770   -7.02133715174163
C        -5.97764379976435   -0.39787320603176   -5.96699576836071
H        -5.52157651120947    0.37596419450457   -6.56620589038320
C        -5.25812340154746   -0.99346445094272   -4.94586002127304
H        -4.23355116934755   -0.68888008303498   -4.73867258546189

