66
CSD_code = LINBUH | q = 0 | S = 0 | Stoichiometry = C28H30N2O3S2W | MND = 6
W        10.56686177797586    9.89883520603692   13.95193804412453
S        10.70191528234989   10.51254035541638   11.61315878428787
S        11.43253665969229   12.21217745989978   14.20973536260259
O        13.11878476722194    8.12327787129135   13.59208911907026
O        11.73933878791182    8.99312245973061   16.68546488530319
O         9.53434725778717    7.07869665296797   13.13153332066873
N         8.10879544941534   10.49756441825125   15.88305860607320
N         7.74200611832169   11.39119701067099   13.97696328531156
C        11.37984964206740   12.07407911357198   11.51496042807270
C        11.64652545988523   12.82321556895528   12.63306973310876
C        11.68489885588986   12.58549139969612   10.13978065120848
H        11.11905380005395   13.49336709442720    9.93214884878891
H        11.42174834214332   11.83106602795391    9.40333575493960
H        12.74557260806560   12.81891415043143   10.04180565621318
C        12.19671958245189   14.21230063180543   12.52358651911534
H        13.18270268540966   14.19651650214468   12.05787039614477
H        12.28604430456826   14.65453110442894   13.51236676495562
H        11.54700394237945   14.83533979592469   11.90905187740119
C         8.65580601249928   10.66931914820039   14.66174672680329
C         8.72657018220313    9.87002272605026   16.99847979969360
C         9.46996532157810   10.65481590669549   17.88184136167657
C        10.03729447480254   10.03963672492574   18.98632810617200
H        10.62857812612848   10.63052428914530   19.67037328177742
C         9.87797303319349    8.68118922143616   19.22011206497145
C         9.11184050949579    7.93221188230453   18.33633667980770
H         8.97759890400867    6.87554168522196   18.51572847249831
C         8.52247939468009    8.50816682907097   17.22328609383547
C         9.67621324168927   12.11281654513151   17.61005495214952
H        10.26747338471173   12.23773801431091   16.70177815877338
H        10.20733987239709   12.58417361455785   18.43194640075218
H         8.72528002820606   12.62569871493400   17.46713585857596
C        10.53892418870694    8.02343385504718   20.39083087423957
H        10.77765324061159    8.74927151161709   21.16411632381980
H        11.46774097339730    7.55492232540501   20.06538267387978
H         9.90206808545777    7.24881324997443   20.81249340538866
C         7.68189193915863    7.70743415649550   16.27753898868711
H         8.08362807216216    7.78117956314202   15.26740974145074
H         6.65812048434241    8.08208275960418   16.26177852273369
H         7.66447600611045    6.66216063092105   16.57144032913597
C         7.88315713594718   11.90478583594952   12.65797121301972
C         7.58204192589231   11.09344434742022   11.56311751595856
C         7.70649667691115   11.63217906494084   10.29269661548114
H         7.49082888120636   11.01171300353673    9.43530799908062
C         8.10759905686779   12.94711096051955   10.09733899266790
C         8.37108436683111   13.73698590891570   11.20584914390533
H         8.66794264266781   14.76750993232815   11.06832886017978
C         8.25745489977126   13.23895381712946   12.49581877238660
C         7.14304339049078    9.67731757154020   11.76682658251873
H         6.79419192633547    9.24665437611105   10.83258494580338
H         6.34324355794096    9.61752838912457   12.50458294047553
H         7.98168764992481    9.08031119118688   12.12965517018909
C         8.23445380878275   13.49233187851214    8.70780461868175
H         8.93202897495317   12.89027960679143    8.12774549331105
H         8.58574947653872   14.52116667152946    8.71967183603347
H         7.27040682866988   13.46184021995886    8.20140477930724
C         8.51433983728671   14.11166362619892   13.68634889145378
H         8.87728989673693   15.08689928917278   13.37359271916433
H         9.25919896562581   13.65965169172109   14.34171846028056
H         7.60114928872049   14.25276525126400   14.26514197410101
C         6.87759899137315   11.09437355650130   15.96009439135550
H         6.28410231825227   11.06450118658000   16.85101074477314
C         6.64567269604138   11.66069864665512   14.75528440462819
H         5.80773049157962   12.21557088407414   14.38530558073093
C        12.21936732140415    8.82962066744248   13.67663107091997
C        11.13075239330498    9.37074103938950   15.78479901261216
C         9.83206580086211    8.13611520764469   13.48231041679143

