71
CSD_code = LINBIV | q = 0 | S = 0 | Stoichiometry = C32H32O2P2S2W | MND = 6
W         8.14691666805438    4.01784345242266    9.52563375846975
S        10.50464523536780    3.53090976065634    9.56008251037451
S         8.00850346809324    1.73716194827198   10.33244341388337
P         7.32665217041566    2.90375570230936    7.55722572285982
P         8.56438275350450    5.73812799028339   11.16272858326808
O         8.84917413593264    6.45051695095304    7.70975467976042
O         5.11216446410633    4.38939719926048   10.15185814579415
C        10.66950803447109    1.86496731950461    9.92573084112792
C         9.59082069549753    1.08134863763723   10.21094155069063
C        12.05920368536634    1.30693710849005    9.87576180365325
H        12.30603664558095    0.78790305685940   10.80199936395688
H        12.77302258689262    2.11116267860744    9.71697289336605
H        12.14803512311291    0.59509206346641    9.05332226922164
C         9.72657856850754   -0.38798619323234   10.47298907686443
H        10.20859354462198   -0.88206884439797    9.62893761005330
H         8.74486249500433   -0.82745066866582   10.63031242237357
H        10.33523991507423   -0.56720618150690   11.36033262695635
C         8.51545179664168    5.58890535937162    8.40242487114444
C         6.23193481939319    4.28040907618099    9.89563574630551
C         5.88993802800289    1.77043220780997    7.61949569974744
H         5.77369325806839    1.25542080477622    6.66432511484468
H         5.00785692572012    2.38178033952760    7.81659444184725
H         6.00841768946164    1.05671400223732    8.43372093719071
C         8.69007921988167    1.90019856663231    6.90515219229308
C         9.79894922097425    2.59626089691777    6.42558046245227
H         9.75240342140405    3.67758557432818    6.36231382862043
C        10.94076258673296    1.91516329862402    6.05676168064928
H        11.79827744565547    2.45810734756844    5.68751210481617
C        10.99259183180703    0.53383921704219    6.18114188611018
H        11.89119087981691    0.00094513310495    5.90539984944006
C         9.89895162964774   -0.15972953294113    6.66896955563810
H         9.94254054041226   -1.23487924741583    6.77316270230449
C         8.74850977928864    0.51869593789712    7.03682319358821
H         7.90536485273517   -0.02737758713165    7.43528920253889
C         6.84012382090903    3.94002652504470    6.14647862645313
C         7.04498936756934    3.54171175896323    4.83059373314521
H         7.54047481211226    2.60242112362166    4.62346907364727
C         6.62619436862116    4.35327086800268    3.79155129624444
H         6.79384417823276    4.04669143524148    2.76925533238292
C         5.99513080751310    5.55667904152229    4.06050224775192
H         5.67429799400746    6.18991820477005    3.24654822473996
C         5.77658566233453    5.94937019194514    5.37146487143741
H         5.28288227064076    6.88667176315897    5.58105518760441
C         6.19722519026369    5.14374517423680    6.41355238211868
H         6.04027115238877    5.44088773251244    7.44490960305168
C        10.19081619099417    6.58293134390665   11.11853763208538
H        10.42355230588881    6.86373704502129   10.09178306159692
H        10.94377329529704    5.87061335783199   11.45888575134287
H        10.19251595485292    7.46155827156683   11.76452950198225
C         7.37010983724938    7.09724629208455   11.06189038754858
C         6.14614638240566    6.96247380011079   11.71247141747554
H         5.96305903788418    6.08755114186792   12.32196340974473
C         5.17777910074705    7.93917206089151   11.58082092210255
H         4.23114596268742    7.83035074053230   12.08922944627737
C         5.41925667085431    9.05381502716334   10.79343471106995
H         4.66123136596960    9.81614118376984   10.68912515552768
C         6.63145777346152    9.18821090497770   10.13740710144343
H         6.81880286548098   10.05448059989958    9.51958634542627
C         7.60506222581887    8.21383837730440   10.26696284087924
H         8.54462114678995    8.31960451551945    9.74476854336091
C         8.48732585582646    5.29132548428547   12.92764073017348
C         8.46078403019792    3.94997241987453   13.28100600080800
H         8.45095599389357    3.19654648544791   12.50009744823651
C         8.43532907432519    3.58235002815474   14.61513432430122
H         8.41349838259700    2.53705074176328   14.88651276867152
C         8.43286856567276    4.55661324376758   15.59867030853834
H         8.40967212852706    4.27280820375313   16.64064093150153
C         8.45508514312420    5.89868791085918   15.24936070461620
H         8.44785462619343    6.65703565684542   16.01892195226166
C         8.48415941849860    6.26906514693438   13.91861738593889
H         8.48996292518208    7.31494282311360   13.64168989664070

