50
CSD_code = LINGEV | q = 0 | S = 0 | Stoichiometry = C19H27INPPd | MND = 4
I         0.19526737298418    3.95584984654077    1.71562126952282
Pd        0.91336422035327    3.25468518728137    4.08615041739327
P         1.71534901000883    2.73417541907954    6.08884984764601
N         1.61525116708926    5.42043306667803    4.80441154909797
C         0.43691886720192    1.29526217045356    3.67035557116389
C         0.51954210664637    6.37234639711957    4.57492375892791
C        -0.82155122006085    5.78330426388707    5.01160846378337
C         2.75289208726570    5.63412502225161    3.89486587655058
C         3.53909144031416    6.93216263204419    4.08422228317925
C         2.00849254150090    5.42556141282901    6.21690592423522
C         2.76911159263507    4.16114636609892    6.61375574100181
C         2.85044770294991    1.32773429076602    6.24987609703348
C         3.67988209394134    1.13268472934436    5.14699526596056
C         4.59487960423067    0.09886044931992    5.13812943804289
C         4.67302997461656   -0.75684899627655    6.22655928296331
C         3.83067621593542   -0.58265786775627    7.31171808056423
C         2.91592928783520    0.45671990784445    7.32831855553378
C         0.47787351565848    2.60605706122348    7.40994818096118
C         0.76941345665645    2.65578303833226    8.76953414443665
C        -0.25481058559209    2.57469427137850    9.69550309906652
C        -1.56947495846434    2.44958188296853    9.27418735529331
C        -1.86631316241760    2.40887276362841    7.92154405323955
C        -0.84519140896364    2.48798262593090    6.99257530510010
H         0.57222515120226    0.62645363463225    4.52907763037370
H        -0.60951959480452    1.27131161173360    3.34313250424869
H         1.08537574826517    0.97100167793964    2.84682785690884
H         0.70243923849364    7.32060911303022    5.10169248666985
H         0.46962624302893    6.57969955343712    3.50281508812940
H        -1.63382798592227    6.39656665586710    4.63006126611606
H        -0.93219862162507    4.76713623290021    4.59241291078932
H        -0.91518117500702    5.72691832990683    6.09581547026441
H         3.43704252610002    4.77829180183352    3.99436290494875
H         2.35980996956354    5.62223628071259    2.87290416670887
H         4.10152791847222    6.94224311991742    5.01564250536049
H         4.24851989835766    7.03183495930620    3.26676614112700
H         2.87617884980360    7.79385521312093    4.06256743535031
H         2.60011071104274    6.32051881055823    6.45921585330848
H         1.09391437501543    5.46271215813055    6.81789002696164
H         2.95798248608199    4.14872145786491    7.69028446155602
H         3.73178606335204    4.08827764657766    6.09933501438980
H         3.57475975570877    1.79220505558443    4.28568203280761
H         5.23803777917052   -0.05051254258660    4.28370213304453
H         5.38270294561329   -1.57069831055138    6.22175475629402
H         3.88144032630600   -1.26324763652263    8.14894726289132
H         2.24714786221667    0.57783990101024    8.16824139047341
H         1.79190137702432    2.76127166381430    9.10648915436545
H        -0.02750750075277    2.61149036752815   10.75108374407056
H        -2.36334686355037    2.38848670187450   10.00359541809519
H        -2.89104302527810    2.31875364912832    7.59341937314226
H        -1.06047538020124    2.46310695228703    5.92412145090112

