22
CSD_code = LINGIA | q = -1 | S = 0 | Stoichiometry = C7H6Cl4N3ORu(1-) | MND = 6
Ru        7.65269814201464    7.33717452938296    2.15510660288139
Cl        8.59238809769652    8.56572866873249    4.04704629397362
Cl        5.59657162374152    7.97053605715756    2.85694063509278
Cl        6.64866895526885    6.10261221316705    0.39733066039806
Cl        7.80202102509085    9.22030502913820    0.78284710147891
O        10.22833363547135    6.33309680500895    1.55804495852405
N         7.28982635127440    5.73093096732505    3.50673273982955
N         7.37481739853551    6.01297718262650    4.80875355123942
H         7.77404506406102    6.93478866787542    5.05418490518519
N         9.17526838897833    6.78441595988814    1.75066195035749
C         6.73556290784252    4.55277331587710    3.34683837780106
H         6.56695549813916    4.15437681788061    2.36397100515157
C         6.43106258921344    4.01204669145259    4.61718868572709
C         5.85123934612793    2.82854505964405    5.08592734500366
H         5.52018141875301    2.07068438063593    4.39240904994528
C         5.71602289853809    2.67018094560916    6.44242929746233
H         5.26957819828005    1.76815493092702    6.83575012723892
C         6.14298462819068    3.65837493252459    7.34462363338534
H         6.01063684045770    3.48561457480938    8.40305923134110
C         6.71822674970031    4.83010638172007    6.91711582940050
H         7.04431298524777    5.59254441464539    7.60680250199961
C         6.86099725737559    5.00403147397275    5.54013551658371

