54
CSD_code = LINHEW | q = 0 | S = 0 | Stoichiometry = C28H22ClOPRu | MND = 8
Ru        8.49787481288836    6.12937136508925    8.67858368159208
P         8.33644806160330    7.90216360467249   10.12468595369156
Cl       10.85209919971934    6.25482386192195    8.52170775184990
C         8.29665519618175    5.10250717262370    6.72422227652727
C         7.11853198745439    4.87369251495016    7.47282376342028
C         6.49002518721516    6.11707945473926    7.75220494282271
C         6.90602649204569    8.48343476811675    6.74118605585704
C         7.73572221287606    9.18171080069692    5.89641203424378
C         8.84276633507354    8.57054181368516    5.28975732885441
C         9.14222511444972    7.24626248602141    5.50854764468240
C         8.31895145316414    6.50263543811571    6.36945779048089
C         7.18967641952794    7.13176108399347    6.99866095136958
C         8.58566928750017    4.97286728464194   10.09242273964338
O         8.60193432610020    4.21124854498641   10.95326323908699
C         6.60058351399735    8.39584735550226   10.34179898326504
C         6.08165127420904    9.61683060390129    9.93109337901259
C         4.72684478390607    9.87092975597020   10.07194544600414
C         3.88903315017849    8.91357653333274   10.61760334970500
C         4.40286242214736    7.68951389746136   11.02200228715569
C         5.75096969220954    7.42820519626996   10.87707014143825
C         8.91563929393879    7.63755018986284   11.82858666530797
C         8.21870609860976    8.05658263622712   12.95643711111494
C         8.74939849347225    7.82826668808681   14.21414127850124
C         9.97162363555945    7.19169088972688   14.35088411769247
C        10.67143499593638    6.78095785751889   13.22691670661595
C        10.14745162626021    7.00090519792202   11.96707200223442
C         9.18713703306927    9.45140517195076    9.69617716227307
C         9.87506895624682    9.54923915853339    8.49406774802935
C        10.50941326968416   10.73181590066503    8.15594583702499
C        10.46188401846268   11.81420791151632    9.01763096860578
C         9.78755480659445   11.71399003998322   10.22581420113086
C         9.15175897039970   10.53664460865994   10.56967092501351
H         8.91609433647558    4.34052949564647    6.26941564981744
H         6.73163900300612    3.90156471668846    7.75457819771873
H         5.50207962384606    6.23915713518982    8.17627313222803
H         6.03485802082084    8.94667055371570    7.18432043948598
H         7.52835224465916   10.21971771759295    5.68194573491580
H         9.46221712115711    9.15384341000723    4.62483908060118
H         9.98582866203167    6.77513576787788    5.02425618913637
H         6.73335228505895   10.36463294495666    9.50133861678304
H         4.32452391142801   10.82076562582157    9.75057024443395
H         2.83377036174309    9.11708578825307   10.72364956450771
H         3.74836116380752    6.94054836294094   11.44308532816036
H         6.17022610651152    6.47214041393021   11.17091316336364
H         7.26071480661218    8.54803669600613   12.85434475775277
H         8.20406020424755    8.14743062246419   15.09051288878064
H        10.37773132438063    7.01320473649833   15.33556956432989
H        11.62396120985288    6.28421022437221   13.33344261429570
H        10.68051372433748    6.68058753532170   11.07890408136731
H         9.93251938117687    8.69028932981447    7.83825027607751
H        11.04565284136060   10.80488350916706    7.22165801325548
H        10.95771539170898   12.73706866850515    8.75455044129639
H         9.76158611116785   12.55623844401290   10.90182808255613
H         8.63032004392388   10.44919851387032   11.51325947488793

