35
CSD_code = LINLEC | q = 0 | S = 0 | Stoichiometry = C12H16Cl4N2Pt | MND = 6
Pt        0.89884116119063    4.93010316356861   11.90024512758670
Cl        1.57496003929836   -0.21209091567838    9.40059468768246
Cl       -1.41114958192507    4.81690207986524   11.42080935317995
Cl        3.25720007080081    5.01394763269496   12.08866617992225
Cl        0.76303344257161    3.35195008585201   13.55926618979358
N         1.05968620096371    6.25362257496525   10.33261794734950
N         0.55204012957136    6.53028211978588   13.53590285226626
C         1.20831435013657    3.59867347436612   10.41036547237323
C         1.26160624037230    2.22570904628879   10.48438855041055
H         1.11845586143068    1.70410528485313   11.41903706411000
C         1.50807112226672    1.50088498218426    9.32005647828641
C         1.70252676886504    2.13250615833556    8.09533969305864
H         1.89390134232903    1.54158910894031    7.21378944929271
C         1.64805245405110    3.50718540500047    8.02518635961513
H         1.79638343110642    4.01215951363231    7.08243389210649
C         1.39892772028875    4.25308213879876    9.18080956899711
C         1.31130068439680    5.68323258762141    9.21496310726313
H         1.44736133859801    6.26560126168396    8.30460965523040
C         0.91475519692001    7.67575519458508   10.44747645279692
H        -0.14731545401473    7.92029624893607   10.31277484099560
H         1.48396101521537    8.17262036172403    9.65145537065450
C         1.38320670796722    8.17882482703019   11.81452425775490
H         2.36186958520798    7.74629512482505   12.03003791014666
H         1.49981129963067    9.26179054047272   11.75053346499176
C         0.39221434461594    7.86327511035919   12.93796956810931
H         0.49408352546728    8.62021109208035   13.72986440919834
H        -0.62382339832592    7.93283669308703   12.53869954682550
C         1.68231996389715    6.53145223599287   14.47016288654310
H         2.60599515907844    6.79951926981989   13.96316604832255
H         1.80558194504238    5.53380427025809   14.88920504374349
H         1.50334379843325    7.24164338372528   15.28664398445655
C        -0.66041968214979    6.21906347561883   14.30236981560304
H        -1.52165483114631    6.16521106796468   13.63856388328805
H        -0.83913078459131    6.98511389398641   15.06616402626315
H        -0.54471116756048    5.25314150677545   14.79060686178213

