17
CSD_code = LINMOL | q = 0 | S = 0 | Stoichiometry = C4H6O2PdS4 | MND = 4
Pd       -0.27667296447243    8.44566441182862    6.39748352013012
S         0.59773151846898    8.33767858663866    8.56485915934375
S        -2.17571900199478    8.43855683470382    7.75097071383597
S         1.62298610959735    8.48412128758036    5.04540860047256
S        -1.15046933484071    8.58601972086702    4.23175575705785
O        -1.34367514508254    8.41126059775682   10.27896492127290
O         0.79566440136634    8.71196909998614    2.52602453664986
C        -1.03288369677276    8.39905856921992    9.00146328353305
C        -2.71535396769643    8.46597239965752   10.63521233404984
H        -3.18358690348476    9.36103507271619   10.21851743306112
H        -2.74073719249112    8.49407676513235   11.72177660398086
H        -3.24237374078120    7.58390786253773   10.26366307081497
C         0.48199344239485    8.60620208437808    3.79852003578843
C         2.16916980562340    8.72935848076967    2.17300908996067
H         2.67603251552730    9.57168993252201    2.65007105522304
H         2.19822347304003    8.83141552097319    1.09098353039866
H         2.65547068159843    7.80111277273197    2.48241635442645

