29
CSD_code = LINMUR | q = 0 | S = 0 | Stoichiometry = C8H14O2PdS4 | MND = 4
Pd       -0.00086494610694   -0.00163311519574    0.00221028678610
S        -2.11272180750169    0.98549412714826    0.11340736983166
S        -1.25844940251297   -1.24060672244980   -1.51483598367845
O        -3.72075222588004   -0.20484253035948   -1.51615905482076
C        -2.50258056735410   -0.18567901292712   -1.04306063747229
C        -4.10769651015771   -1.19987506951424   -2.48286773115584
H        -3.24753583183975   -1.39020164734121   -3.13877836250005
C        -4.50129417659633   -2.48243538093039   -1.75955484159914
H        -3.65987885421777   -2.87102411538566   -1.19098728658780
H        -4.80727396600229   -3.23140619130996   -2.48361792441421
H        -5.32658292252814   -2.28483491394672   -1.07969384958567
C        -5.26139070002907   -0.60376545281483   -3.27549519143201
H        -6.09594695324091   -0.39497714198057   -2.61156982830581
H        -5.58033473580898   -1.30418797732105   -4.04166501307768
H        -4.95201841616859    0.32371219925526   -3.74969955117186
S         2.11371236158716   -0.98294007050352   -0.11659472892921
S         1.25930669998846    1.24293427181472    1.51188891812914
O         3.72066195906254    0.20499383812369    1.51593045013286
C         2.50256114066414    0.18601351664268    1.04263632892370
C         4.10755049168746    1.19970392704716    2.48299159173043
H         3.24721929594202    1.39005704162614    3.13866381364088
C         4.50174502461986    2.48237412195823    1.76019844704315
H         3.66064799916959    2.87135778494167    1.19143377484378
H         4.80765120404538    3.23104935340491    2.48459608226775
H         5.32723618658989    2.28476002387914    1.08059045817014
C         5.26080729398828    0.60305053840373    3.27585295410122
H         6.09554186906805    0.39422563966000    2.61216506844874
H         5.57966480377372    1.30316490472686    4.04233804005523
H         4.95101568575859   -0.32448194665195    3.74967640062603

