54
CSD_code = LINNIG | q = 0 | S = 0 | Stoichiometry = C23H27IP2Pt | MND = 6
Pt       -1.58857449917999    0.33640315377132    9.20366558668950
I         0.40321276851352    0.08822322650123   11.05851810284208
P        -1.72398041382787    2.79233131863744    9.63862955335249
P        -3.13080735142934    0.86692427957867   11.06417355830143
C        -0.21575987164557    0.19595691991270    7.65073295475303
H         0.12906688543479   -0.82627760113610    7.48909051386875
H         0.64828563343620    0.80199558036299    7.93921939753775
H        -0.61551439205780    0.57547391627056    6.70845491855763
C        -1.80215923602508   -1.72769627535831    9.15032532070614
H        -2.35330861050574   -1.99747090232603   10.05796715998573
H        -0.83192874414096   -2.22532380453517    9.18165276768544
H        -2.35182315280971   -2.09371649617958    8.28341329653561
C        -1.51144228992247    3.07279359444076   11.46357530445832
H        -0.44015562956532    3.00742694613508   11.67869276558464
H        -1.84569492857964    4.08506016094480   11.70886578180668
C        -2.30347432221494    2.02354133298769   12.25129612574540
H        -3.07746194741363    2.49030376576665   12.87078601967358
H        -1.64177348802772    1.43657460135866   12.89507245954628
C        -3.08280444719004    0.47051609391825    7.75229387387341
H        -2.94952417222864   -0.22494019371778    6.92471006056426
H        -3.10059110671218    1.48298410089266    7.34066470783347
H        -4.05834011722185    0.27480173178957    8.20318632913710
C        -4.22815623585738    2.11569582559012   10.33883353621258
C        -5.60842530364472    2.18401752302569   10.42556737655078
H        -6.15535601945188    1.44158179826373   10.99053116376341
C        -6.27789276435272    3.20554129879541    9.77070134477403
H        -7.35518879692427    3.25907325287171    9.82640828205313
C        -5.57701803628803    4.15040340208958    9.03808753547895
H        -6.11155974977675    4.93347062788894    8.52084495031179
C        -4.19430951425390    4.09700152810216    8.95794665673557
H        -3.64966938189349    4.83128735112577    8.38037895710463
C        -3.51623712668871    3.08183137764506    9.61248931971010
C        -1.01422626000106    4.28398790158041    8.88185911582858
C        -0.23601089139375    4.10632959269773    7.74227984069815
H        -0.07607566694848    3.10565071776551    7.36365834942636
C         0.32463693735161    5.19737173113564    7.10250620621182
H         0.92859973556639    5.05362450368809    6.21893621653244
C         0.11095139436360    6.47157440746923    7.60009537931709
H         0.54983747329045    7.32585937516313    7.10637080695574
C        -0.66789791596869    6.65446928740510    8.73258527569192
H        -0.83677644480041    7.65005478083914    9.11688907368779
C        -1.23229641495763    5.56814817469006    9.37377353436608
H        -1.84780928710082    5.72320832591339   10.24888621854553
C        -4.22097139253469   -0.17292128300653   12.06681024409999
C        -4.21091629577890   -0.21644799359149   13.45586278608430
H        -3.54090359835695    0.41411594809651   14.02066452601587
C        -5.06513277483507   -1.08028599412814   14.11924315070232
H        -5.06023618139249   -1.11092897455236   15.19879347042612
C        -5.92075580604566   -1.90504138078497   13.40819434798714
H        -6.58300847338546   -2.57647151840751   13.93392147891667
C        -5.91865192647325   -1.87945376293359   12.02192591187745
H        -6.57688782993087   -2.53039473710757   11.46560056638086
C        -5.06491003937987   -1.02436186091144   11.35394065016749
H        -5.03999197884477   -1.00647667642588   10.27072716835177

