65
CSD_code = LINRAC | q = 1 | S = 0 | Stoichiometry = C28H29FeN6S(1+) | MND = 6
C         4.50613911436540   15.56659561250185   15.62865753144097
H         5.29920477659778   16.04917746707627   16.17641072294105
C         3.92494124415832   14.38612235737541   16.05171699882542
H         4.25437687695011   13.92069370101694   16.96575307517346
C         2.91802407193063   13.82089122198185   15.28382688238008
H         2.43309600074092   12.90675022734803   15.58594421637438
C         2.55360879024224   14.45746188946411   14.10648465098962
H         1.78653429881598   14.04764262471389   13.46831347304502
C         3.19809983497835   15.62972021399986   13.75084239698622
C         2.93207970246941   16.35225966687232   12.46306509270456
H         1.88164829894455   16.27480791177829   12.16329169895546
H         3.52769549881339   15.86546054598630   11.68587068439892
C         4.06836482921032   18.17814009845194   11.39026371653639
H         4.28412859383899   19.24509610188723   11.47314932867435
H         3.48227211517279   18.01197821208151   10.47681944964536
C         5.36066428586095   17.39888184406613   11.35978015782171
C         6.00166335512379   17.01208946143598   10.19794090144266
H         5.59305713421672   17.28148218485495    9.23642542148448
C         7.18154564318435   16.28243910367921   10.29181197549857
H         7.70732061277348   15.97980396116198    9.40071518769131
C         7.65797651308826   15.94883625126205   11.54997020043887
H         8.56467866732855   15.37938405826497   11.66816118796882
C         6.94991694185425   16.36446402845457   12.66484461420253
H         7.27118601441818   16.14621871766041   13.67005901629662
C         2.24716920272613   18.60907240379510   13.01395588658537
H         1.49458851357175   17.97915081306780   13.49025864705163
H         1.77774066262552   19.10899875824163   12.15976044657541
C         2.73676613645031   19.64178429863578   14.02279957821318
H         3.34809140994611   20.38149053381174   13.50604884657713
H         1.88562082713055   20.16466252822127   14.47436793494885
C         4.44144817510188   20.01385615897505   15.65207211198063
H         4.97256903372344   19.54675034241611   16.48460739775792
H         3.87497186722219   20.87426866871397   16.03063860005577
C         5.47308457190328   20.44672821867154   14.65563572646579
C         6.23207433561267   21.58790536570050   14.85916051946808
H         6.05250150032774   22.19909767175017   15.72901889017586
C         7.23262670024976   21.90666007242438   13.95698954218720
H         7.85494360041357   22.77414995062326   14.10534203797093
C         7.41783446115369   21.07026541148830   12.86815955306279
H         8.18633783115200   21.26378507357388   12.13836605875949
C         6.60604032640223   19.96008981725331   12.73473339158981
H         6.74115585427832   19.29551879896178   11.89649371802952
C         2.77210825815637   18.32060569662675   16.08757989883394
H         2.17736073338313   17.54933843735865   15.59541317914746
H         3.48481119988594   17.82494253865663   16.74896333081245
C         1.86302120076094   19.22295729668588   16.88509819825632
C         2.32355614266453   19.86407040141405   18.02987519348730
H         3.33182018846157   19.68813413388786   18.37467431416658
C         1.49428145573791   20.70977176214360   18.74525682668792
H         1.86464111930076   21.19777520609947   19.63347738207803
C         0.19128059107744   20.92380345204263   18.32789409098430
H        -0.45524870321161   21.58274847950092   18.88589215190717
C        -0.28390363103869   20.27536980892554   17.20117506914566
H        -1.30375191364807   20.42284685715305   16.88034184236029
C         0.54649086287428   19.42899282124498   16.48672156752498
H         0.15547946822285   18.90758019702201   15.62331628163116
C         7.30207268382740   18.17593827315240   15.49429928781794
N         4.14932830699116   16.18757157220973   14.50704318084809
N         3.36014514403112   17.75370749636483   12.59483163631834
N         5.83697282461149   17.08055614305906   12.57616989898224
N         3.57070122784080   19.00479533404447   15.05457197521230
N         5.64931212405237   19.63728900602044   13.60354142566059
N         6.23048705939535   17.75162751797331   15.23858726779035
S         8.72103968612019   18.72748292392512   15.90460143459452
Fe        4.82550574543456   17.85396229478718   13.94184709637631

