83
CSD_code = LINSUX | q = 1 | S = 0 | Stoichiometry = C38H34BrN8NiO(1+) | MND = 6
Br       -3.28686702513684   10.73062578533722    3.27280261584814
Ni       -2.31467804452672   10.85118640996249    5.38204739070637
N        -1.56427862706169   10.74495857663344    7.23936874005214
N        -0.40391252289482   11.27211769552031    7.63087531773328
N        -0.50530323276703   10.81012146529095    4.73694491800303
N         0.59735126955827   11.01167737886249    5.47665030330633
N        -2.65207752677768   13.13938957633087    5.32616687942270
N        -3.87001938143741   13.66588795464368    5.50606452963909
N        -4.08722411015204   10.77015152377490    6.04473062475798
N        -5.03202348676051   11.69144226397390    6.26170163339350
C        -0.30869864072870   11.27502681574412    8.97631575233387
H         0.54593353728130   11.67069102903265    9.48509406534334
C        -1.45357488110090   10.69998922230631    9.46891229911008
H        -1.71068359939204   10.53103021133486   10.49266370974450
C        -2.20465570189757   10.37952672272352    8.33876780102619
H        -3.15255928097788    9.88195948490128    8.29634472939606
C         1.70069780728204   10.66271110502050    4.77935000366706
H         2.68648582761887   10.76172802086821    5.18467392641731
C         1.29167781815073   10.19257110575584    3.55766621392476
H         1.90120125834851    9.82466986071443    2.75999522833651
C        -0.09703844199721   10.30408022432147    3.58013115733504
H        -0.78267667180527   10.04885867917962    2.79595147654391
C        -4.01380328380422   14.80430157949203    4.79104644906520
H        -4.90576060756113   15.39370130980024    4.81743890250983
C        -2.84901328383582   14.99545521859203    4.09236372941886
H        -2.61975794994014   15.78744246237208    3.41181111957969
C        -2.03622531903738   13.92041437593273    4.45548789955952
H        -1.04923083407008   13.68906667695291    4.10778158475291
C        -6.20536531239917   11.08595449925025    6.54765853429814
H        -7.09182837419939   11.63960801180038    6.77750105138484
C        -6.00993401917195    9.72861131230009    6.47814651477997
H        -6.73269992844805    8.95546897690595    6.63058130969835
C        -4.66424732625638    9.58202738399430    6.15339184865049
H        -4.10758394084791    8.67748722098136    5.99485586055131
C         0.64193397920944   11.74572788189328    6.73629138892845
C        -4.80334874902359   13.12441032485162    6.47797854031738
C         0.51336770890755   13.23917122639296    6.44777643355359
C        -0.24015049013071   14.07342613296865    7.25970346609012
H        -0.79126984314016   13.67516607528792    8.09807284442166
C        -0.28673637260175   15.43343709323631    7.00119272052681
H        -0.86773386302020   16.07697090110898    7.64306073269210
C         0.41447137255221   15.97199005584948    5.93794078044854
H         0.37636898951964   17.03223142905732    5.74334565568818
C         1.17405221054694   15.14353287188348    5.12933317587471
H         1.73137758444555   15.55218491413685    4.30097157585620
C         1.22619478899830   13.78521579629139    5.38369199422388
H         1.83193362416901   13.15295782310488    4.75053303836388
C         1.96981946575333   11.41225273417890    7.42459472399540
C         2.22418213192365   10.07857380739967    7.73996180574388
H         1.50063727081555    9.31677349317641    7.48510367141476
C         3.39833635344933    9.72346892819144    8.37547607621190
H         3.58630501667083    8.68815049914436    8.61273335594676
C         4.32853086892141   10.69623219399843    8.70713639191835
H         5.24494992975056   10.41980200808279    9.20400980713633
C         4.07616687128766   12.02159840758972    8.40173645763116
H         4.79382225622573   12.78429489077343    8.66005486263544
C         2.90000745527845   12.38332100769231    7.76350169229142
H         2.71374206124956   13.42112111831480    7.53546410300679
C        -4.25259625082705   13.33002321658828    7.88897974166844
C        -4.58097599468246   12.46177419513513    8.92291278208765
H        -5.22527333871574   11.61336204174657    8.74617181974834
C        -4.10496675847074   12.68545654049110   10.20307129675785
H        -4.37243215794734   12.00357726790287   10.99539471818165
C        -3.30335081220101   13.78159934128453   10.46799060826341
H        -2.93569777068934   13.95755094411736   11.46689124461766
C        -2.99157031153595   14.66180654006006    9.44630919178420
H        -2.38565486259436   15.53143784441539    9.65066361030864
C        -3.46399402879347   14.44062244734208    8.16421947381008
H        -3.22706532795519   15.14259321711302    7.37883652719518
C        -6.14622977312639   13.82401755968420    6.27281472432366
C        -6.72443273304699   14.61970128102903    7.24992254011992
H        -6.23275000167705   14.76309910698241    8.19975373085901
C        -7.94276128934100   15.23511611000658    7.00745990288861
H        -8.38628096327738   15.85201003131552    7.77330515574505
C        -8.58547224571184   15.06093123195068    5.79491312538018
H        -9.53318506618846   15.54216536061233    5.61119143750657
C        -8.00883025905999   14.26663309072761    4.81557816309939
H        -8.50281724256811   14.12711891596335    3.86699765794291
C        -6.79517977610283   13.64947173214485    5.05072543959499
H        -6.34693161087487   13.03270603709583    4.28490782078167
O        -2.06424017661790    8.35648610540981    5.16309274046819
H        -1.20605605636564    7.93060994893716    5.10064408305255
H        -2.49514197665085    8.24727813675448    4.30430304860444

