22
CSD_code = LINSAE | q = -1 | S = 0 | Stoichiometry = C7H6Cl4N3ORu(1-) | MND = 6
Ru       -1.25202615966265   12.80834166141171    0.63283703045983
Cl       -1.53403070756775   11.46319767744955    2.55256425731299
Cl       -1.60346310827317   14.75352441518000    1.95827226484774
Cl       -0.76227623521407   14.22502345807434   -1.26510845915866
Cl       -0.36177700927328   10.94294655307560   -0.53273489526914
O        -3.91936003502596   12.49393128853217   -0.21367764982275
N         0.72223727961792   13.10638302985283    1.20083890583452
N         1.42581640698721   14.10202185609506    0.64710515793970
H         0.97921826648472   14.61786150109057   -0.12300366046453
N        -2.82778548838369   12.61433231793185    0.14332426695809
C         1.47219234667991   12.49734719587730    2.09309975266977
H         1.09302884412172   11.66955996307985    2.66505690171758
C         2.74284169780546   13.11315482749539    2.13277649374048
C         3.92479246314232   12.91710995832008    2.85496698720106
H         3.99051572295126   12.13120743378737    3.59193726998802
C         4.98378628152750   13.75034421905529    2.59507500919752
H         5.91103659235020   13.62485726913441    3.13570090766948
C         4.89724963989855   14.77325553165323    1.63617550039082
H         5.76047996765467   15.40167825364340    1.46918680439340
C         3.75118236028631   14.99228638404937    0.91148080796831
H         3.68144380096634   15.77704837313978    0.17442958570686
C         2.66759707292747   14.15128683208493    1.16679676071208

