112
CSD_code = LINVOU | q = 0 | S = 0 | Stoichiometry = C54H53AgNP3 | MND = 4
Ag        1.32655874288085   13.93588403012375    1.94816470911530
C         3.01742098057982   11.27592899482681   -0.16437314317824
H         3.22050373823787   11.82631743550990   -1.09298706498474
C         3.90388181911026   10.03743569743896   -0.10919743079697
H         3.76384111813444    9.51372876455311    0.83446908752496
H         4.95658886507636   10.29155142904709   -0.21239318853376
H         3.64035744552961    9.35959011608477   -0.92061186185349
C         1.54309303052306   10.88636775983916   -0.15165740485998
H         1.30619506269751   10.24584154919992   -1.00071501680823
H         0.91057168030968   11.77536563546672   -0.20282345239254
H         1.30087048656982   10.35182305982369    0.76390325429266
C         5.10498907583204   12.97686605992265    0.95189166720501
H         5.73509726196667   12.08410489649654    0.88799156106430
C         5.55624649708564   13.83640676759258    2.12814666020242
H         6.59631615921390   14.13876773701874    2.00958761820275
H         5.45686541398668   13.29833245197682    3.06888006757053
H         4.94456331900685   14.73700245017261    2.19268769458460
C         5.23215069104617   13.76429124680970   -0.34911347656675
H         4.56443575667211   14.62559833200641   -0.33942306399058
H         4.99362878590009   13.14886781672293   -1.21388846824089
H         6.25238544312794   14.12879513471576   -0.46630071768213
C         2.15380333456034   11.21497515983586    3.38116111426805
C         3.38341620445957   11.39501863144993    2.68671809882051
C         4.54067478672338   10.77392110588757    3.13939147720692
H         5.47135944077038   10.90190669148404    2.60505892161133
C         4.52989802793838    9.97542738017692    4.26614241488798
H         5.43680795701320    9.49258466436918    4.60037296799150
C         3.34067754503506    9.80727266355798    4.96819067762444
H         3.32848641984742    9.20042284987403    5.86429327906736
C         2.18376705083086   10.40914510899763    4.54174341286912
H         1.27272971638437   10.29789295018392    5.11383244654872
C        -0.21124898313694   11.49228701692780    3.26598099817377
C        -0.62388522026700   10.14832997658974    3.31660331283081
H         0.11088401890055    9.36580108464963    3.18327919471200
C        -1.95092052662912    9.82343020369690    3.49601852357328
H        -2.24250137047411    8.78152476165933    3.52070804939656
C        -2.91578947383056   10.80980379774064    3.63806388163750
H        -3.95324807079143   10.54475810887204    3.78137113265880
C        -2.53014996435943   12.14099321652069    3.58793220177392
H        -3.27065330557770   12.92345333819044    3.69482680448904
C        -1.20727529307923   12.47480575351426    3.40286839468589
H        -0.90144810125291   13.52278417237826    3.36387945029265
C         3.39894384522143   15.24314120605418    4.63223637862734
C         3.38711524080342   13.97363919230899    5.20507415077169
H         2.51328927204583   13.34660622080385    5.08769083963247
C         4.48907555384933   13.51425241578370    5.89940058616371
H         4.47755915909674   12.52337482131408    6.32809380477544
C         5.61039790112120   14.32019961801942    6.02361873490293
H         6.47684681053617   13.96122092421403    6.55936034745231
C         5.62520286024228   15.58351625134274    5.45522314602672
H         6.50079792353057   16.20937541516057    5.55210518596111
C         4.52454621463066   16.04910486199836    4.75726856119823
H         4.54228557392873   17.03199132978071    4.30570155207109
C         0.83151423168435   16.34171198029546    5.03359582611967
C         1.30187473222266   16.69694379589402    6.29371131782333
H         2.35147100986894   16.58924647698431    6.53003277948264
C         0.42285651022617   17.18639457051957    7.24318578731683
H         0.79083302306752   17.46252041323893    8.22090177968722
C        -0.92351133119947   17.32398762676113    6.94580408722343
H        -1.60379032358387   17.70748746586067    7.69194641546181
C        -1.39730762477172   16.96101084795809    5.69547220091684
H        -2.44730060697318   17.05777148216068    5.46134409372564
C        -0.52452836215477   16.46508543657987    4.74601692034682
H        -0.88999636205706   16.16742926848112    3.77225612225733
C         2.40332570126375   17.24694052740586    2.86418515246502
C         2.22197078801983   18.52068677868543    3.39079312143087
H         1.80256600105786   18.64214037435096    4.37953181372384
C         2.56985314074539   19.63105886747255    2.64110796328865
H         2.42596508843997   20.62005433234229    3.05200824246612
C         3.09490682495277   19.48220487972941    1.36755863791895
H         3.35530617962495   20.35392033941159    0.78557590143279
C         3.27818900152459   18.21435162925917    0.83698595158849
H         3.67610754710640   18.09310157716785   -0.16026011858127
C         2.92982521576889   17.10522336112813    1.58247830973633
H         3.04374269680157   16.10644002737621    1.17031663887851
C        -1.26784132833175   16.37193508426485    1.02230733717255
C        -2.57911568638758   16.10319912539669    1.40495522759417
H        -3.01442425591721   15.13753017376525    1.18699489223661
C        -3.31862890402162   17.06750801179267    2.06617344976272
H        -4.33769582110426   16.85489152748990    2.35519836635837
C        -2.75614361770357   18.29842281337433    2.36263750102868
H        -3.33574688855090   19.04786898748506    2.88101899207786
C        -1.44507684372478   18.56445358051664    1.99951411636312
H        -0.99734884564312   19.51835151847325    2.23761226195573
C        -0.70111076905890   17.60598389186685    1.33909585575549
H         0.32537455607123   17.80897913162235    1.06569194043394
C         0.62156759186276   15.91629756214673   -1.06536646016134
C         1.77876646593205   15.30604779450740   -1.54036897330293
H         2.11523445345707   14.38632597370238   -1.07150856052174
C         2.49003191181176   15.86514061924715   -2.58462130719241
H         3.38913526975244   15.38687723296496   -2.94541527476515
C         2.05037462088922   17.04547817643974   -3.16245592279599
H         2.60659734683131   17.49086978576524   -3.97417808573341
C         0.89666733326422   17.65545579110046   -2.69776806580662
H         0.55184976363034   18.57372671347635   -3.15101638916425
C         0.17947282259903   17.09564105622403   -1.65524300892130
H        -0.71787562350740   17.58104956368527   -1.29713371312102
C        -1.44931342696071   14.05640785166331   -0.57470944371064
C        -1.79299745798091   12.82639053063971   -0.02283739847991
H        -1.31683039114945   12.49706993135875    0.89268944888174
C        -2.74649677259745   12.03285660636703   -0.63471536884796
H        -3.01154369695334   11.08339799599382   -0.19428158027600
C        -3.35231691726317   12.45874817117318   -1.80497152680202
H        -4.09479151941868   11.83977633947557   -2.28685579645555
C        -3.00458052440191   13.67981702827707   -2.36218181230825
H        -3.47575163922011   14.00971947209176   -3.27689875874244
C        -2.05739252766815   14.48099526281782   -1.75179967482959
H        -1.78795337433580   15.43174578995745   -2.18982650024875
N         1.06059622263723   11.88771039837799    2.97202376817726
P         3.32117497456221   12.48257989342672    1.24288170716488
P        -0.21636059696682   15.06762333140285    0.31443914973235
P         1.90471509232332   15.70648696404442    3.70232258984809

