115
CSD_code = LINVEK | q = 0 | S = 0 | Stoichiometry = C55H55CuNP3 | MND = 4
Cu        1.10965974026553    9.26208397348427    6.23100650867847
P        -0.71196909393124   10.04348633567096    7.52249129730105
P         0.56339305008484    7.70631692373085    4.48549315024149
P         2.50974685248427   10.83487917605145    5.27449506193531
C         1.71861116608671   12.30367415498000    4.53096820220429
C         0.53848452654400   12.72831806658733    5.13137542481686
H         0.15534224359847   12.16428284278705    5.97394834717665
C        -0.93769483845183    6.11078614267586    6.11516650510795
H        -0.02119176860422    6.08184975296796    6.68689045745488
C         1.49543240664767    6.34592525828222    3.69498493996354
C         0.47691873420362    7.78646093307148    8.57275512470468
C        -1.77004189440168    6.99908730590260   10.07734206516007
H        -2.63251934860708    6.70138603301625   10.65663864891652
C         5.08083663532482   13.47319160895726    7.11871660350749
H         5.37539888052142   14.50891013162332    7.02857930703936
C         4.31585401595614   10.82615871881302    7.35578658843627
H         3.99859910394389    9.79776241921581    7.45711886716818
C        -2.14706081314970    6.88646758149096    4.18332014576291
H        -2.18299378130147    7.45194609849199    3.26206147430674
N         1.51232302245094    8.12449248903610    7.77475354105657
C        -2.53481156112254   10.40069079385840    7.23699779696106
H        -3.05263615882840   10.43585314116967    8.20080909518829
C        -0.61425691523829    6.21654721930804   10.09529696032468
C         5.27269398185310   11.34533852015631    8.20765194935579
H         5.71045120081463   10.71263513506518    8.96529133972139
C        -2.72496050809914   11.74210980830133    6.53514467163885
H        -2.23890937949306   11.73768747669625    5.56097229515992
H        -2.32021297508377   12.56171177291606    7.12561471972650
H        -3.78724974671731   11.93046705040270    6.38019843072546
C         3.58005757307601   10.23954591757570    3.92600126276471
C         3.60845045494704    7.46513650168758    6.84479323841168
H         3.16928582916932    7.58763409339488    5.86078475427101
C         5.11635900409361    9.14663326771628    1.88034174858575
H         5.71586273919265    8.72894420127886    1.08494054613826
C         2.79576962849247    6.63370601502398    3.28622418753535
H         3.18925247897449    7.62818203184178    3.43630800914080
C         4.12870930437876   12.95712801658600    6.25744088284760
H         3.68532165431003   13.59304209420971    5.50490142002574
C         1.55325044458509   14.12648584400128    2.97588160020627
H         1.95272363673547   14.67639206238383    2.13588648163067
C         4.71122104475812    7.19344832937305    9.35728340779163
H         5.14549909734195    7.10229359639022   10.34420468753343
C         3.38392429438343    7.54502082965910    9.23353406381381
H         2.79326479468584    7.74561868972691   10.11684859943009
C         5.61839238897637    9.21009496817419    3.17034082758854
H         6.60976784607198    8.83775856606880    3.38408735400646
C         3.74610918451044   11.62501063476827    6.36693794647131
C         5.65718851626197   12.67094451180722    8.08996994622255
H         6.40090963545629   13.08152969677121    8.75696163559739
C        -0.97604016317303    6.84278427151194    4.93062772563825
C        -2.06026797522298    5.43653749925130    6.55408755443066
H        -2.02532155171747    4.88262484342105    7.48028673991153
C         4.85544994881565    9.74772513497953    4.19137635822344
H         5.24847563691983    9.78604776962346    5.19723667844240
C        -3.22817073164152    5.48514118790012    5.80875715363472
H        -4.10968420513461    4.96255776200382    6.15041482815854
C         3.83920791988340    9.61464035036038    1.61476336570149
H         3.43550852536708    9.55670043505389    0.61440286529441
C         0.37127751066184   14.53648840912359    3.57157207012752
H        -0.15329581129620   15.40071032545533    3.19104433600624
C        -1.11642915420229   11.38559222714620   10.03343951657028
H        -1.11189552552607   10.40573477821116   10.50732684392258
H        -2.14467471605262   11.66632043588426    9.81575700830421
H        -0.71480049707273   12.10957545091793   10.74201615371031
C        -3.26720306848414    6.20407019692478    4.62508448959221
H        -4.17714069657847    6.23643790025230    4.04314658498316
C         2.79137480285780    7.68276111844324    7.96670215162691
C         5.49568538440189    6.96275102320136    8.23710208127896
H         6.53330436780611    6.68203919722400    8.34431452339111
C         1.78120254212221    4.08961843234236    2.92211052397526
H         1.38441576033687    3.09425448411135    2.78272838645212
C        -1.81238821220921    8.14408367747814    9.31087459474070
H        -2.72392563406852    8.72413710556330    9.30616456089520
C        -3.12097264153118    9.27672291834971    6.39065805175274
H        -4.19355296050184    9.41514677770838    6.25769206902290
H        -2.95246292981566    8.30801528377033    6.85736492891674
H        -2.65507744367120    9.26159605601141    5.40643624403259
C         0.99558739880792    5.06016402546457    3.51844591066520
H        -0.00669560160823    4.81732637539043    3.84087790277078
C        -0.25548602766222   11.37332971820278    8.77590036355983
H        -0.35474627730323   12.33980700637594    8.26306609577763
C         2.23119284456188   13.01924043289211    3.45313870556646
H         3.15850834163908   12.71432845354999    2.98901397405188
C        -0.71786901421870    8.55788691900676    8.55940954722344
C        -0.13325999725002   13.83938846813281    4.65715785903053
H        -1.05088256384387   14.16117460651861    5.12823479252258
C         0.24932358097626    8.32772089609578    1.71705847886110
H         0.67902119872739    7.36466269476903    1.48096128947114
C         0.47548791478965    6.61145242416429    9.35508928570262
H         1.35874885870817    5.98669109651259    9.33627677046671
C         0.05663837171752    8.69792988815056    3.04282461060107
C         1.21330755642724   11.16672205249891    9.12901297344215
H         1.57796096623107   11.97056821981678    9.76766605670450
H         1.82264297627099   11.14181120082230    8.22462297445118
H         1.34681043934060   10.22169089998542    9.65150154867811
C        -0.48849280973001    9.94651421561420    3.33426239916582
H        -0.61285928875389   10.22616477845486    4.37512711327303
C         3.07026806197598   10.15068163607088    2.63088364799345
H         2.07178677398447   10.50659747957225    2.42127025664538
C         3.06736164606681    4.38675374113091    2.50268437676270
H         3.67396280261962    3.62392919361448    2.03706434893270
C        -0.84367990088462   10.81363730624183    2.31978357152734
H        -1.25752612148974   11.78376057432545    2.55497391104011
C         3.57448017009055    5.66292847282352    2.68735326173478
H         4.57878591424263    5.90259372736611    2.36951557520290
C         4.93137315613566    7.10516296346698    6.97851939293919
H         5.52858635945389    6.93435041526128    6.09237877703557
C        -0.57535180480635    4.95980020005000   10.91416536697986
H        -0.55963472934754    5.20414830761422   11.97696213196033
H         0.31029332124107    4.37164825050529   10.68443108163595
H        -1.46027727038039    4.35195699692736   10.72799441140921
C        -0.64464332339815   10.44137916755140    0.99895196377779
H        -0.90796708007383   11.12031990818942    0.20129542985698
C        -0.10255293105536    9.20114702112687    0.70250864977391
H         0.05034127837396    8.91285848035483   -0.32761531569252

