66
CSD_code = LINXIS | q = 0 | S = 0 | Stoichiometry = C27H24F10N4Pt | MND = 4
Pt        0.19724322107440    5.75509564753299   13.33838332203413
F        -2.13382704714898    3.96293856205620   12.89921487393503
F         2.49867159827609    3.56847896857475   12.15887301621324
F        -2.48501968117918    1.37660641064467   12.14269050948778
F        -1.43224509490108    5.10027612436128   15.73149908770320
F        -0.31812125624416   -0.13499509095358   11.40959377918642
F         3.12852429098547    4.67072921721298   14.64764006553702
F         2.17330820473271    0.98898380384384   11.42521691281937
F        -1.00347991894968    3.81113804062678   18.08791666348703
F         1.51380131711491    2.92463884711511   18.71610629404765
N        -1.96749474917112    7.05361691050258   12.01502711575684
F         3.57117436072702    3.37018525553171   16.97314865835736
N        -1.45201643003662    7.94300652805455   14.12358445271329
N         0.47973470665669    8.59188637774542   14.81337309035242
C        -0.75059794794622    6.54778434326919   11.71127027208164
C         0.82068333299556    4.89626279386187   15.08788074853273
C         0.19668662710150    3.84796817804179   12.59532269945947
C        -2.42139299919258    7.17224283272317   13.38079697769441
H        -2.51326172533690    6.17229118140198   13.82514966755853
H        -3.38913845909777    7.67922028992553   13.40358156144838
N        -0.60081183087102    6.72197123588901   10.38677204705053
C        -0.14794265341650    7.58759622268571   14.17697615653220
C         2.37147006375693   10.09871297711290   15.22601870892088
H         3.45676885132393   10.12567580646546   15.26323830252911
H         2.04642596682916   10.67436196741604   14.36175218140533
H         1.99932499773004   10.57208061619864   16.13109863133358
C        -0.15459199642462    1.13920069745561   11.79428312814739
C        -1.04704007252522    3.22154148515264   12.55891582566925
C         1.11041557764734    1.71420958537204   11.80676061103670
C         1.26092218459588    3.03897419240216   12.20119602058226
C        -1.25078414350348    1.90627816142582   12.16984109741493
C        -1.64466876945325    9.15232091402291   14.73095666540974
H        -2.60526403813290    9.61755705154500   14.81193063011207
C         1.91587747440214    8.64108476716025   15.11453676008420
C        -0.18378346201489    4.64777277160669   16.02047775872365
C        -0.43141289099601    9.55156787521252   15.17679216916918
H        -0.16990519831436   10.43715559503656   15.71444110898663
C        -2.58258681017108    7.53002096422637   10.89112755410023
H        -3.56058020391754    7.96494344533065   10.90142973288540
C         2.08184567022190    4.43608132840941   15.46230941482905
C         0.70146948147003    7.20546912054734    8.36515372116644
H         1.66410187115168    7.01965526905325    7.89741815576344
H        -0.06894278795810    6.99255717193014    7.62839617349122
H         0.65364857035476    8.25754661986226    8.63864299232928
C         2.69061185491553    7.96577767603465   13.98275165886907
H         3.74539629870809    7.92512168582638   14.23559014619013
H         2.34675388302562    6.94291461953879   13.81362732721967
H         2.57595450286728    8.53176207858918   13.06128578204671
C         0.01313600858458    3.99938522451922   17.23018847933842
C         2.14503274767015    7.91992799848587   16.44479572348470
H         3.19975619113442    7.93933584553835   16.70163864880498
H         1.58273239531483    8.40032946693702   17.24322648927554
H         1.82449207556115    6.88468405048088   16.36926063583100
C         0.37157391282057    4.85658067818028    9.17705237291721
H         1.21777972575670    4.52314663173698    8.58407164417882
H         0.28769919918368    4.21890206686128   10.05261141929742
H        -0.53391579119609    4.75134473140338    8.58251328279982
C         2.33100665754656    3.77774197738543   16.66139566021561
C         1.82873563962127    6.46703031664222   10.45836539333904
H         2.69004783144388    6.09700161579859    9.91113414108811
H         1.99313686182715    7.51520849806678   10.69678734490669
H         1.75477946810371    5.90084030506466   11.38965898659896
C        -1.72781762569600    7.30731904941898    9.86640453610827
H        -1.85080228705508    7.52572733010967    8.82769955572869
C         1.28884729412701    3.55208744209385   17.55242159461462
C         0.57117495348995    6.31303964769242    9.60268386106883

