29
CSD_code = LINYOW | q = 1 | S = 0 | Stoichiometry = C12H12O4Re(1+) | MND = 8
Re        7.68765799793261    2.81631612621833   -0.24274274020492
O        10.02358552875842    2.81656772365923   -2.29597019359755
O         5.30928378303524    2.81705389824561    1.76110736380939
O         6.42387392461971    5.25501412744466   -1.71297094316757
C         9.66473734850146    3.57897002733572    0.97556867581228
C        10.71505094183747    4.56925516417855    0.65369995283956
C         8.59718116459149    3.57898189142077    1.89394118248941
C         8.12242252165858    4.56916251430165    2.88468693386949
C         9.15553547138880    2.81631432869755   -1.57069798778600
C         6.15553670247571    2.81655430528449    1.01052496695548
C         6.87612846974252    4.36076501971363   -1.18647997902436
H        11.21379724678418    4.34983115200617   -0.28837014198399
H        11.47149886505454    4.54362532476578    1.44250239920244
H        10.30381474218851    5.57646106069624    0.61753247550816
H         7.11581024581302    4.35083454261959    3.23617924760642
H         8.14979710510532    5.57661854573356    2.47336557372451
H         8.78862582425516    4.54193524481509    3.75102480537042
C         9.66485730372625    2.05398262315738    0.97566623670247
C         8.59727810884289    2.05391016985818    1.89400188217273
C         6.87579974822909    1.27210334084354   -1.18650755991016
O         6.42341981666654    0.37826753013900   -1.71339921625626
C        10.71523183517957    1.06376344105844    0.65382979658417
H        11.21424955390418    1.28342461403119   -0.28804160978527
H        11.47144842269844    1.08918283757519    1.44286479576386
H        10.30401600139392    0.05655343775080    0.61731577987110
C         8.12270018930075    1.06373590986852    2.88484558855334
H         7.11620639835717    1.28214318452894    3.23662228498942
H         8.14988409484914    0.05627388560221    2.47352045626864
H         8.78917064310926    1.09089802845001    3.75097997362277

