41
CSD_code = LINYEN | q = 0 | S = 0 | Stoichiometry = C14H17N4O4ReS | MND = 5
Re        1.07507327433359    1.85345658016284    2.70764757530209
S         1.37028314802678    0.04240040703142    1.21110509131280
O         1.17100012225108    0.95451935000982    4.10567459357965
O        -0.38640983842119    5.65972380681213    3.16342404078535
O         4.15048417985424    4.29819851589914    1.75656128847435
O         1.31339627108361    2.79570837896691    0.12772304749995
N        -0.95405396663766    2.31299510037854    2.11219504325094
H        -0.90081090221157    2.55866827515179    1.11961242659758
H        -1.63396093505550    1.55019646887834    2.20946918383756
N         0.94183579665585    3.79910079147436    3.02384163425151
N         2.87422193471673    2.45091868315908    2.13993333068477
N         2.98197363082685    2.67369003431075   -1.38178242900193
H         2.42656632615895    3.11815402753718   -2.09637444254529
H         3.95495709747376    2.50217186451761   -1.56554426891166
C        -1.40526266025602    3.47394407955636    2.90152844744628
H        -2.25646828516786    3.97445520468564    2.42520943941440
C        -0.22088980123356    4.46166473392729    3.03753064281610
C         2.19427854384766    4.50242586022932    3.17286562580491
H         2.52245269197061    4.47776991578942    4.21938427413689
H         2.11096397911902    5.54554806981918    2.85296762015562
C         3.20624878639794    3.76539772979663    2.30400085478829
C         3.37102750856071    1.86936520110784    0.90601836085074
H         4.42445675701157    2.12968567908206    0.75051188479053
C         2.46615495430172    2.49943146177414   -0.16470057563588
C         3.14830216126922    0.36044952338191    0.91896825439320
H         3.71393294711656   -0.09989741081450    1.72955459836341
H         3.41436536724443   -0.09295343233160   -0.03514121877446
C        -1.79205737386664    3.00859707069334    4.31853226221960
H        -2.16297334931095    3.87274934371098    4.87073625098352
H        -0.89059048486994    2.63412524034459    4.81589654508904
C        -2.82501220389636    1.91856397633205    4.26392918939775
C        -4.18088735094769    2.21808002254319    4.22216568137625
H        -4.50101775440946    3.24890578981358    4.27301674311310
C        -5.11929444278365    1.20545452990408    4.12720510788186
H        -6.17128473832982    1.44834396233676    4.10363999030642
C        -4.71123283960649   -0.11674072630811    4.06509149646663
H        -5.44476830579131   -0.90555497606811    3.99279766925755
C        -3.36150008995747   -0.42440272891259    4.10247840467154
H        -3.03771441504572   -1.45316045465702    4.05830606296686
C        -2.42117389403192    0.58732165604130    4.20064398462904
H        -1.36531184639431    0.34542839393431    4.24827628797470

