144
CSD_code = LINZUD | q = 0 | S = 0 | Stoichiometry = C51H81N7Si4Zr | MND = 8
Zr       -0.55206244530018   11.79560922849574   12.65061583837285
Si       -0.16079215904586    7.69225493004485   12.81313369021407
Si       -2.48934534555433    7.27586385000414   12.42130375519311
Si        1.27293060965779    6.06251124932582   11.80035488293115
Si        0.23673446235756    7.59355389484701   15.16778376443902
N        -0.34018846078399   12.89558843872015   10.78213658441828
N         0.61035944088673   12.03227680380729   14.65928593000677
N        -2.16154956097297   13.12975515796123   13.41764954576371
N         0.64701947698372   10.19110363397818   11.67888893978722
N        -2.19736721112796   12.43434293333851    9.43537645398692
N         2.04413488094567   13.78484668626522   13.99849712650403
N        -3.56868171243107   11.64316857952360   14.57668368045400
C        -1.41097643383558   12.17160611071316   10.51363370540790
C         1.12826037399274   12.81617298607310   13.73569136751139
C        -2.50210446789961   11.90774343678885   13.78501386555889
C        -0.11204172391941    9.57789775138973   12.52500680732908
C        -3.23559280199798   11.49886580485524    9.07486349517701
C        -2.11436930137055   13.55859153347981    8.52137254466916
C         2.66841708087899   14.47074194494891   12.88929720495562
C         2.46468264460936   14.28966839364318   15.29235742021781
C        -3.82836415508753   10.27123647022615   14.94451830047666
C        -4.42163814249442   12.57814220917514   15.28604828188297
C         0.35723440264559   13.83715460759613   10.01235843663740
C         1.07538520161283   13.47312890253780    8.85815554518511
C         1.87270441110551   14.41552534020531    8.22483290477592
C         1.97229288998242   15.71163415719526    8.69268044003485
C         1.24943694711113   16.08132601033783    9.81409544761358
C         0.44809263301636   15.16708353540800   10.47328521949408
C         1.00244416532141   12.09038897843035    8.28029139263533
C        -0.36493276675685   15.56783944754857   11.66485194138678
C         1.08615810808219   11.80710958314748   15.96082215710612
C         0.27252300695062   12.00007760864867   17.09080529036935
C         0.76430499471373   11.70272841599838   18.35323133300122
C         2.03561053465996   11.19115668150254   18.52890298446104
C         2.81699880778812   10.93984656917976   17.41490145441819
C         2.36041050782833   11.23018055156897   16.14199534995837
C        -1.13164543461325   12.51544948459061   16.97002556022263
C         3.19428269489221   10.88329140155227   14.94635299390229
C        -2.89875430644519   14.31768502296551   13.42114850359263
C        -4.05003245966628   14.43103016783187   12.61023998449112
C        -4.69340511109332   15.65066652825718   12.49716459480693
C        -4.23206680083082   16.77088409902397   13.16638996960523
C        -3.10209844916587   16.66625158206410   13.95513557723459
C        -2.42602883775513   15.46372274188270   14.08886032597315
C        -4.57758755421744   13.23650036230454   11.87080796322102
C        -1.21241792066141   15.40586134939761   14.97240025397732
C         1.41656631674805    9.69378774424493   10.62749594803534
C         0.81659621190757    8.97995569269106    9.57134932268184
C         1.59336610291504    8.57735405861931    8.49520197843973
C         2.94503818373138    8.85818307786884    8.43413813351991
C         3.51628234622911    9.62584994169196    9.43370216809327
C         2.76674067919001   10.07038331951403   10.51074392574089
C        -0.66101367961471    8.73029334849360    9.53161571945430
C         3.39858177777393   10.96474054134164   11.53228982745608
C        -2.83271872696323    5.87455114947059   11.15318768555736
C        -3.42227146509646    6.66040974554493   13.97988489289004
C        -3.44814601832169    8.81765045215273   11.77998913266360
C         1.23191590524224    4.49928762615511   12.91144001522175
C         0.87764982699521    5.41196996063283   10.03929426594592
C         3.10028927055017    6.63368006417085   11.75144265827378
C         2.10874315905112    7.62498533839904   15.58346817687574
C        -0.40157319098128    5.99339529953064   16.00776718043187
C        -0.66495924421599    9.02240642979836   16.05951220477169
H        -3.00632858680034   11.02366332998384    8.11409721794201
H        -4.19991785606842   12.00731699982887    8.97771557208686
H        -3.31633588103371   10.73074886368736    9.83949902354044
H        -3.12740832034490   13.88483118954189    8.27242232328399
H        -1.59841837818598   13.29226133688007    7.59385047788613
H        -1.59181030462114   14.38902206415033    8.98629378108430
H         3.75540651503542   14.34093789071224   12.92901040678235
H         2.45533681132574   15.54384447470159   12.92223694041523
H         2.29691635495209   14.06602285486125   11.94735070887999
H         2.48642991331866   15.38223164517157   15.25475774832170
H         3.46364312258467   13.93492825803325   15.56643127211163
H         1.76572971484133   13.98291114556110   16.06543803551687
H        -3.74711789427866   10.14373717197308   16.02920711150530
H        -3.10569483712701    9.62565212417241   14.44922453210043
H        -4.84148270118116    9.98287984379409   14.64701030652817
H        -4.36029660279725   12.38378439089768   16.36153213916187
H        -5.46516485767452   12.46246667863313   14.97820165281313
H        -4.11326344826704   13.60216488380400   15.10098765744671
H         2.42022520699240   14.11923571471125    7.34068049923516
H         2.59683810267752   16.43034773135308    8.18349605771286
H         1.30147345055684   17.09809833797225   10.17837012553243
H         0.72508852846740   12.13256849206881    7.22705501087630
H         0.28005436356669   11.47783493629145    8.81151461240216
H         1.97398871494515   11.60231039809257    8.34458740135811
H        -0.25821233454888   14.81506086474442   12.45294134391172
H        -1.42364399426669   15.62231690849931   11.40275869563307
H        -0.05996658298197   16.54388927417921   12.03541931330010
H         0.13005046294062   11.87488932606594   19.21222817462854
H         2.40639123426753   10.97158295704976   19.51901538070392
H         3.80063385581317   10.50652242914992   17.53579671920023
H        -1.43201928364136   12.55601287198592   15.92603297284692
H        -1.21428225621467   13.51124863850682   17.40629181426612
H        -1.81261513889199   11.85993479167186   17.51201320521160
H         3.99798018476934   10.20577273583224   15.22678275092692
H         3.64054119804736   11.76921218214240   14.49600759907005
H         2.55842163437090   10.40656464334163   14.19715683202577
H        -5.57338645834519   15.72386549190000   11.87277365458377
H        -4.74699056306700   17.71493311489607   13.07014931310554
H        -2.73136653368185   17.53466714503273   14.48203873318472
H        -3.75591931103172   12.58068984727361   11.57743250245813
H        -5.12536422008352   13.55370231154325   10.98567386849809
H        -5.25907583803500   12.66169684296614   12.49853395741344
H        -0.64320486693868   14.49547570022174   14.78964426172409
H        -1.51200048267886   15.42448702400588   16.02107554175143
H        -0.57467644983045   16.27089433259889   14.79727924125316
H         1.12165553273104    8.04247663806881    7.68253853978639
H         3.53887733884258    8.51573041584615    7.60044816209716
H         4.55993961587760    9.90044803703650    9.37256583815752
H        -1.18476699275230    9.44438672632487   10.16776618025802
H        -0.89618742464955    7.72300203330894    9.86866312512038
H        -1.02174193558091    8.83530188244560    8.50916165437569
H         2.63063630508222   11.57437563837733   12.01782933289249
H         4.13011157709925   11.61614329545388   11.05692295853558
H         3.91590828706671   10.37548428260802   12.28896659729658
H        -2.52624580129977    6.13204660500307   10.14434307472231
H        -3.89068728364930    5.62955717605414   11.11380317022946
H        -2.30423663624697    4.96865164842545   11.43396363955082
H        -3.23785196366858    7.28182211483265   14.84882353907155
H        -3.10885280623146    5.65141173725709   14.22735065731008
H        -4.49704822621419    6.63105971920252   13.82046022165112
H        -2.90333942754984    9.74127335690689   12.01086701471897
H        -4.43928763379104    8.89929321708579   12.21691690670446
H        -3.58074309074178    8.75823173747900   10.70360071277525
H         1.66541269432208    4.69904929920904   13.88551666673237
H         1.78980504036332    3.67826587603054   12.47011382465046
H         0.21505974101831    4.15286765283741   13.06850695342606
H        -0.15199569967280    5.07938712612524    9.95568882158226
H         1.51114220876804    4.56463490303627    9.78760860448243
H         1.04587547341632    6.17422276881764    9.28699556849314
H         3.42632404164548    6.98210622631050   12.72662659577408
H         3.23824295797342    7.44837627930852   11.04833000178660
H         3.76871433338783    5.82954207614945   11.45476420748574
H         2.49024896359578    6.62142905254215   15.74883288418681
H         2.31285706000534    8.20688827630021   16.47771686987076
H         2.68680929022600    8.06060856855301   14.77599935904726
H        -1.48304335235199    5.92779225322704   15.99213844637767
H        -0.09039382928401    5.95426930611951   17.04829580022738
H        -0.01584713471168    5.10372022857198   15.52313433579145
H        -1.66237067404274    8.72161350067499   16.36456522707401
H        -0.75722289888341    9.88754471731196   15.40129654416168
H        -0.13630520527325    9.33991648931072   16.95328942779937

