71
CSD_code = LINZUF | q = 0 | S = 0 | Stoichiometry = C30H32N2NiO6 | MND = 4
Ni        5.91559306816446    5.12582613392854   -0.00122079171549
O         9.95688127986235    3.44607193429290   -0.34325846923606
O        12.69265297855025    3.44430952172753    0.37128971934795
H        12.03098745477677    2.79049507121730    0.62840220958618
O         6.04433903845695    6.12854741015519    1.51896200326765
N         7.30775081138398    3.93296155541903    0.67118145926357
C         7.69052817480891    2.75329079454656   -0.09118135283017
H         6.83347377242941    2.37263551336783   -0.64590774528332
H         8.07218791777917    1.97356439079057    0.57789973950107
C         8.79518485159210    3.13704038827484   -1.08144380864111
H         8.99294398577588    2.30716820628857   -1.77572847619422
H         8.46353866805649    4.01100236769678   -1.65869425563684
C        10.88380309722490    4.26566911659505   -1.02095642378760
H        10.39937064390570    5.18979368241215   -1.36641128716902
H        11.29745778834604    3.73523192618356   -1.89129132457621
C        11.99766847876003    4.59575388724918   -0.02807161747332
H        12.72993768995301    5.25923336615129   -0.49162005542759
H        11.55384575697108    5.10052862254336    0.84236758447250
C         8.04276044087985    4.15471606558776    1.71920966172159
H         8.80362693811558    3.40967194492759    1.93862208822165
C         7.94825743592452    5.22789876477384    2.63529398627096
C         8.88163230573853    5.37337983845589    3.71898190117438
C        10.03247020550612    4.57796367291339    3.86751878256669
H        10.26706590243688    3.81759704389045    3.13908960917302
C        10.89652929531534    4.75604418082117    4.91877041653796
H        11.77424682218392    4.13173210428420    5.00116280312100
C        10.65816705051172    5.74005848446703    5.87999271051621
H        11.34358729123897    5.86686031861544    6.70438431761049
C         9.55626100684953    6.54485592196844    5.75682576843527
H         9.36068977823375    7.32213529700657    6.48201428526079
C         8.66268798195686    6.38730345986131    4.68501538922035
C         7.54138762696858    7.24782821800340    4.54903478346650
H         7.38502890249990    8.00560221806409    5.30433508083832
C         6.69485598282574    7.14614084515115    3.49876627799186
H         5.85169929212298    7.81134226685119    3.38317247801555
C         6.87828510907957    6.14535232212567    2.49076310722578
O         1.87621521363010    6.81489786704558    0.34560215866585
O        -0.85672740959817    6.81636029277108   -0.37158691767343
H        -0.19378828117084    7.46927027492163   -0.62786543220913
O         5.78613029978530    4.12267964509888   -1.52082193072119
N         4.52380526113553    6.31886296435759   -0.67422256803708
C         4.14365419260320    7.50016700297154    0.08694670832357
H         5.00247480705538    7.88141586858169    0.63855111848766
H         3.76051494132793    8.27882192540929   -0.58256036346829
C         3.04111798989128    7.11914666128696    1.08066841019679
H         2.84843263027289    7.94887878957336    1.77651406410339
H         3.37173170371878    6.24346290445976    1.65588122677868
C         0.95000748460671    5.99402201004451    1.02265739127916
H         1.43503312261354    5.06988391402329    1.36714822806904
H         0.53592205403754    6.52320992203585    1.89349013546932
C        -0.16355392171164    5.66438986264908    0.02930039001341
H        -0.89685080758505    5.00221491087173    0.49299743429679
H         0.28010587634474    5.15822294564205   -0.84040273098572
C         3.78738616230546    6.09615633662309   -1.72106186659859
H         3.02638991868968    6.84113501115829   -1.94038594620978
C         3.88079577708045    5.02188488567300   -2.63607023670971
C         2.94643973634839    4.87499079694056   -3.71875675732737
C         1.79555273432452    5.67031024921335   -3.86749977623461
H         1.56178388917358    6.43198136264888   -3.14016052283871
C         0.93042072855091    5.49060654156958   -4.91761881464214
H         0.05266006139842    6.11484057329613   -5.00012393509949
C         1.16769328227370    4.50500430414500   -5.87748762960323
H         0.48139645639670    4.37684046337576   -6.70094103556099
C         2.26976327341891    3.70045157788450   -5.75423022782907
H         2.46466501195731    2.92207803239265   -6.47843113411256
C         3.16444262084194    3.85968920700718   -4.68359704452094
C         4.28599088316996    2.99948120815517   -4.54774776712652
H         4.44157630601124    2.24066108693330   -5.30215969574766
C         5.13370556417710    3.10278777341403   -3.49861539956134
H         5.97713553689483    2.43792637630760   -3.38302573101426
C         4.95109207484373    4.10475959491694   -2.49165435669119

