94
CSD_code = LIPBAN | q = 0 | S = 0 | Stoichiometry = C32H55N5SiZr | MND = 4
Zr        6.72888333592105    9.29353222336841    4.28973251266122
Si       10.38309918475676    8.91424465822464    4.38496923010775
N         5.14473739581788    8.12756025719797    3.68264525606547
N         5.95995521170167   10.57895078810001    5.70449043192107
N         7.17242618870746   10.30520734286523    2.53031301780417
N         8.00034761422813    7.87396763017426    5.08339205567611
N         8.94130816805577    6.52784542048788    1.82679164193675
C         3.77716453169943    8.57749756252129    3.81333305701845
C         5.23311532681027    7.13878737644157    2.62968344392519
C         6.18189929485976   10.32118693812660    7.10825184585265
C         4.81427363645252   11.44873344706273    5.56672585037347
C         6.42765392989935   11.54086811081429    2.38208060031007
C         7.06215904797746    9.56175892896545    1.28980844813871
C         8.91030925006039    7.78466464734675    3.99984946120561
C         8.94997779736510    6.98990515745791    2.95996596165647
C         7.64464311658064    6.66069940141342    5.81903195411572
C         6.21420725817699    6.82177813000065    6.36929187939410
C         7.68688100208915    5.36721473013160    4.98700853108575
C         8.61159958557745    6.51034640569662    7.01625047871270
C         9.56031692944792    5.34592855530317    1.26910766143212
C        10.62590028395092    4.72464221071020    2.17637521793848
C        10.18808814651303    5.78545342971575   -0.05812545207932
C         8.43659898712547    4.33613349004374    1.00648160459354
C        11.37123793065829    9.64988054454761    2.87634301561029
C        10.44887987692387    9.87772352793858    1.67812848634341
C        12.47599729195836    8.67981918798344    2.44942852735608
C        12.02146174417493   10.97780558925488    3.26944931518644
C         9.62191168885506   10.27373322296543    5.48358521717478
C         8.88823522439685   11.31175241200020    4.90596780616390
C         8.41515332903433   12.36467210964569    5.67808871406805
C         8.66633155587256   12.39901083763219    7.03977382499501
C         9.36883221559875   11.36092574220634    7.63139567400496
C         9.83037892206966   10.30829505639553    6.86195722260141
C        11.69474785271282    7.98059414419905    5.41829438496001
C        11.80098606002830    6.59370016023139    5.36719853177177
C        12.78525216120120    5.91556991571762    6.06371856712115
C        13.69716863056049    6.61947844908997    6.83117033954570
C        13.61669420488970    8.00069457212288    6.89000875769890
C        12.62840277993014    8.66918807459916    6.18988135271300
H         3.66807284520088    9.19944974418284    4.70601935495161
H         3.08717066585032    7.71728901755780    3.91450711325077
H         3.42906972143855    9.15569938749737    2.92963597745638
H         6.27651375491854    6.85927318075940    2.45359936077387
H         4.80481689964706    7.49769618840469    1.67288409949324
H         4.66443190994343    6.22477959018566    2.89720365711261
H         7.08244994219438    9.71215980222646    7.24303175949040
H         5.31561870890266    9.80963182675743    7.58291858207997
H         6.32524885740090   11.26511551585207    7.67006814576867
H         4.54171549501599   11.57647135889055    4.51546201994570
H         5.01919191513510   12.45105827958931    5.99408279806657
H         3.92585532458507   11.06186294169632    6.10951862337352
H         6.49929682646802   12.14602446415319    3.29135875032543
H         5.35220171249558   11.36590390984826    2.15204448551856
H         6.82980654083285   12.14060341242091    1.54124738537790
H         7.58408910079717    8.60520853674955    1.37082971351607
H         7.51835475083557   10.12895145776817    0.45579332267476
H         6.00721217757027    9.37836218874994    0.99898465523538
H         5.52873752823153    7.04239285542290    5.54296786659801
H         6.17815519211379    7.63693293407898    7.08982174855114
H         5.90146539386600    5.90593527486104    6.87017353584394
H         7.02845070611113    5.45374000186688    4.12459270947317
H         7.36039491713818    4.52460386016957    5.59376429897975
H         8.69894676784972    5.16338145072037    4.64504312231059
H         9.62967074510319    6.35805589996104    6.66687890571048
H         8.32446906796888    5.66829896209394    7.64279282463222
H         8.59083334225126    7.41964077952606    7.61389105361791
H        11.39691631451395    5.45540848419378    2.41371704252804
H        11.09078945649992    3.87741674935691    1.67769196649238
H        10.17891500062327    4.37390683035259    3.10435850198916
H         9.43813236787091    6.26901927496909   -0.67873806841749
H        10.58847316472023    4.92652377583009   -0.59069189770282
H        10.99402019551401    6.49349078020421    0.12201207887947
H         7.66902440794836    4.78799883604160    0.38300074767469
H         7.98111904672931    4.02686033478242    1.94494124766911
H         8.83084477625965    3.45791602039528    0.50121450227898
H         9.59599037114968   10.49674827291573    1.94511550314035
H        10.06789738534338    8.92893638114617    1.30966574177965
H        10.99438955926848   10.36516752346933    0.86954967539187
H        13.19097879886065    8.52104485657910    3.25297321443264
H        13.01207935813770    9.07299065006929    1.58614884576617
H        12.05290083159754    7.71610076323549    2.17694508399503
H        11.27370318099367   11.70752087754129    3.56852560526178
H        12.58209243229550   11.38607324568277    2.42879884435265
H        12.71252315180860   10.83740268376052    4.09677832736880
H         8.75970337135367   11.34063962606984    3.82899389737529
H         7.88119837326328   13.18185072162948    5.21129066241203
H         8.32409417495674   13.23200353272252    7.63733149162871
H         9.56187497319065   11.37782410244138    8.69497998482856
H        10.38195457043238    9.50877592196999    7.33492579490853
H        11.09698001727751    6.04054828620669    4.76418776493892
H        12.84343609226991    4.83781784129448    6.00748966974850
H        14.46785798317288    6.09564443990238    7.37764874374397
H        14.32845010685577    8.55738298098805    7.48298309077858
H        12.57880303464957    9.74691299547581    6.24250163957885

