94
CSD_code = LIPCOC | q = 0 | S = 0 | Stoichiometry = C41H46BrO3P2Re | MND = 6
Re        3.13287746876156    5.34981994266052    7.43088263818270
Br        2.82338010194557    6.38082801216648    9.77150146694731
P         5.12280113654797    6.79975936468793    7.17290568156553
P         1.52757662520449    6.97918830659803    6.39362966378098
O         4.68649790370982    3.21184172965302    9.04173200070776
O         3.73623804179847    4.08387187531038    4.67735265306488
O         0.69832380290798    3.48664316079157    7.87836583179759
C         5.82970175403994    7.61179882584982    8.66045900952652
C         6.45617713972115    6.58444031069872    9.60449231824911
C         6.66228700300921    7.15749289948944   11.00606608054468
C         7.54312740390425    8.40511821752959   11.01317744763122
C         7.93903061205032    8.85708912893679   12.41926768151398
C         6.73884652357411    9.23236999333585   13.29833050166389
C         5.85897326620185   10.24959581745406   12.64189240000644
C         4.58892976158890   10.04171126770994   12.33879980928566
C         3.69169240005810   11.00054836599127   11.62235370919227
C         3.39075620070753   10.45389476482020   10.22236462015817
C         2.23824258666893   11.17848581022913    9.53065351391563
C         2.06503171731050   10.75792772107762    8.06826411016663
C         1.91171500740183    9.24860913518905    7.91815207783850
C         1.66856648791289    8.81623805230627    6.47701026510125
C         6.62460759349839    6.00039348000797    6.50354352189233
C         6.73449240294109    4.62088443871486    6.39559438459553
C         7.90097946101416    4.04764337544208    5.91903492303062
C         8.96563761769222    4.84881849605190    5.54626817198451
C         8.86077225320807    6.22751863349979    5.64660371311819
C         7.69794544251476    6.80168280482623    6.12119926328490
C         4.98283907005217    8.14563755346316    5.95321823009959
C         5.06613384105931    9.49660397728141    6.26850713021730
C         4.96820124370875   10.44606249642087    5.26476051676645
C         4.78783197652093   10.05647763437828    3.94818438074300
C         4.69368087757410    8.70982043584905    3.63112431739746
C         4.78310035541975    7.75960693419719    4.62956464814251
C         1.32773471381131    6.63492245795921    4.61540981716268
C         0.92379070519861    5.34328291738680    4.27905633007677
C         0.77123478583570    4.97800079984912    2.95692718372974
C         1.02739664654486    5.89889451662850    1.95254788313884
C         1.42498492692589    7.18306232490005    2.27986784952844
C         1.57459566885650    7.55502577876613    3.60554900076442
C        -0.20448617966881    6.80146962782509    6.95324218043968
C        -1.24403349063470    7.06326424862335    6.06325688866262
C        -2.55703313422871    6.96687089595609    6.48151806728262
C        -2.84888340685644    6.61878342496561    7.79100700128869
C        -1.82038463504380    6.37478849128962    8.68334420183069
C        -0.50315270952400    6.46530548726185    8.26851738956670
C         4.17129447253452    4.01337653716948    8.40443442163901
C         3.49622418731836    4.57715716552637    5.68679292556581
C         1.57760992466628    4.20215523398625    7.71100841036713
H         6.58017642444203    8.33558080481610    8.33072981560489
H         5.02478662294397    8.13647245908190    9.18398749460827
H         7.40788554688518    6.23966522640678    9.18971477039891
H         5.79964849758142    5.71303265652418    9.68579500431404
H         5.68485060967859    7.39522073333633   11.42643772740759
H         7.12141965466781    6.38835357702163   11.63095574585882
H         7.01525212813816    9.22670815088383   10.52573832867174
H         8.45525379914744    8.20206221833811   10.44378694395509
H         8.50300705992345    8.06214756928529   12.91259408694449
H         8.59827894418887    9.72464845390817   12.32928312462288
H         7.11943578730242    9.63637498362196   14.24141097776421
H         6.15562867490661    8.34027963825572   13.52776100876351
H         6.33022087687210   11.19727301144245   12.40890233810365
H         4.13038835915742    9.08815192448281   12.56900821975654
H         2.75267477730445   11.09663091368192   12.17277397458163
H         4.15338454727669   11.98784450943923   11.55405603309847
H         4.29501325130297   10.53994994408363    9.61345374576618
H         3.14050034698026    9.39719444026704   10.32649173268221
H         1.31473346802260   10.97048666393217   10.07473573148055
H         2.41012172453868   12.25744336721213    9.56755588939375
H         2.92971923099931   11.09008530811628    7.48722089195551
H         1.18258916443996   11.25569502340797    7.65706748105121
H         2.82953003930472    8.76769233818927    8.25986470597129
H         1.09514251579858    8.89889038011770    8.55578284032287
H         2.49999156635066    9.14324362312219    5.84789648455418
H         0.73530850719832    9.23484544324644    6.08261693568646
H         5.90324977013914    3.98946383721503    6.68085423324724
H         7.97475194152180    2.97338476777617    5.83947344010768
H         9.87595117257241    4.40214744904985    5.17515434844941
H         9.68873553132125    6.85628551817434    5.35302445043713
H         7.61907265252587    7.87858589588720    6.18841970224458
H         5.19866599510844    9.81323007470810    7.29250611623721
H         5.03572362981249   11.49564136428481    5.51273450177909
H         4.71777411420463   10.80167776891518    3.16967165685918
H         4.54859006490587    8.40038672052763    2.60670253415648
H         4.70490902821196    6.70638997111491    4.38950813952256
H         0.72618232610449    4.62850531129832    5.07001731677563
H         0.45723935462894    3.97551273018477    2.70768925741684
H         0.91564925267327    5.61460519485900    0.91686702777229
H         1.61922114285283    7.90479596496543    1.49942285230995
H         1.88174448940079    8.56281819982869    3.84140077458039
H        -1.02528653528168    7.33406798257969    5.03913731537444
H        -3.35630270949243    7.16312152729028    5.78150779219307
H        -3.87691042966443    6.54023139330291    8.11231065167473
H        -2.03782330974889    6.11023147112415    9.70718926615188
H         0.28463283689263    6.27726062397528    8.98225035620788

