66
CSD_code = LIPCOE | q = 0 | S = 0 | Stoichiometry = C29H30NO3PPdS | MND = 4
Pd        0.92585041865599    2.79816121130438    4.64948264756539
P         1.82413675184798    2.07704891658727    2.75559118571727
S        -1.36397110990754    2.69177056949929    3.12138190305944
N         0.10420285076504    3.32481311149010    6.53053563422076
O        -0.88993398803905    1.66895799673042    4.07979487408481
O        -0.87266490047101    4.03168441894704    3.44459479049662
O        -2.78619857476808    2.62316919502471    2.91408038548220
C         2.56801233370568    3.58001743578412    5.42254863076602
C         3.88507911048035    3.45288572450138    5.00255511910922
H         4.11812397373362    2.89884330001795    4.09828821369294
C         4.92610633952398    4.02838354983202    5.71656978632309
H         5.94209046597058    3.91829257878094    5.36526830008200
C         4.66831685242099    4.73846853588852    6.87464685036391
H         5.47780175173460    5.18237114949406    7.43489742714620
C         3.36254495310533    4.87881634794071    7.31318147627867
H         3.15087460167576    5.43591582845819    8.21585506262272
C         2.32299952728975    4.31079055760653    6.59374039537033
C         0.88217643561179    4.47777562990692    7.00608610033624
H         0.48283728153650    5.37753557966405    6.51988937346529
H         0.77655865891604    4.59938192588621    8.09664100991703
C         0.33389229223835    2.15782220713723    7.38522005449447
H        -0.08145959467025    2.32440542155481    8.39099393067107
H         1.40802729787851    1.96794221814594    7.47343320665979
H        -0.15425658767350    1.28370067313720    6.94144196489000
C        -1.32099890074605    3.63565707084367    6.49143601278602
H        -1.87665803621695    2.76678324057903    6.13456496959707
H        -1.50069305842270    4.44965987685577    5.78683892598934
H        -1.68855422199358    3.91816691335346    7.48826572866924
C        -0.60021080666550    2.27039756121693    1.49438168450777
H        -1.40812051168853    1.87118714215952    0.88617433357722
H        -0.26622423341435    3.22649871757275    1.09554671638741
C         0.52131479283282    1.27080705326583    1.67636172285253
H         0.14043328449262    0.44336069212357    2.29275331050048
C         1.11155376911056    0.71440985944623    0.41345627103777
C         1.11068454228610    1.42895076055462   -0.78024521135892
H         0.66162219472410    2.40911445325482   -0.82233256039295
C         1.68156711254589    0.89296711242639   -1.92168247999151
H         1.66961595711103    1.46023619094239   -2.84064155578987
C         2.26736691363462   -0.36055596882662   -1.88864148618031
H         2.71538852471759   -0.77478228465072   -2.77929853671567
C         2.26642239099901   -1.08376091019088   -0.70752921182249
H         2.71195553370229   -2.06669435370753   -0.67318227431679
C         1.68917882582006   -0.55275115690444    0.43100905515022
H         1.67805588172443   -1.12914855721036    1.34510098418664
C         2.54922363890949    3.35528229074862    1.68530712143696
C         2.26336776797781    4.66040027104046    2.09051942062783
H         1.67205729621264    4.81563571062790    2.99549314362816
C         2.71231041427310    5.73408279142506    1.34413420412952
H         2.48757615886649    6.74204706872856    1.65867764013242
C         3.44954349180852    5.51479391712347    0.19081588052165
H         3.80321705011197    6.35197400514801   -0.39266758970926
C         3.72840460717371    4.22143459364433   -0.21862521513396
H         4.29552761036989    4.05055090267431   -1.12193582460458
C         3.27936621531626    3.14015924022326    0.52031996935335
H         3.48646822707488    2.13918874260365    0.17547704347544
C         2.95481617360111    0.68278280350053    3.06937184091423
C         4.12752764810345    0.36212024680417    2.40073996441904
H         4.48804853669999    0.98107125641393    1.59486985971055
C         4.85563596747069   -0.75278804484395    2.78468322030324
H         5.76879449967789   -0.99873307515252    2.26283080245181
C         4.42069026990958   -1.54905951526665    3.82947370087323
H         4.99146980967083   -2.41880574392602    4.11904429458647
C         3.25970961676399   -1.22154616334078    4.51526347212918
H         2.92947543724396   -1.83442332802946    5.34099519281814
C         2.53625144752077   -0.10557066362445    4.14372542917670
H         1.63127101870196    0.18524518530470    4.68573170826623

