115
CSD_code = LIPDOE | q = 0 | S = 0 | Stoichiometry = C32H72NiP10 | MND = 4
C        10.17909992293199    8.21304954617698    0.85861288715899
C         9.00868857396763    8.49753204512426    1.79199639731491
H         8.14535292033304    7.89992171243364    1.50167714210098
H         8.73136139419488    9.55112156033598    1.74525174237961
H         9.26587193299876    8.24672246913675    2.81909389625064
C        10.69778658966477    6.79418880365393    1.06838553874291
H         9.91181268363520    6.07022630761744    0.85754580430419
H        11.02154053503282    6.65887476737518    2.10045510374157
H        11.54171569218218    6.59003590546854    0.41251449541131
C         9.74064432420027    8.42784732652759   -0.58583789117256
H        10.56825003917684    8.28104596775168   -1.27508178394983
H         9.35807032804649    9.44026287145313   -0.71322824645535
H         8.94986987797636    7.72471148394899   -0.84405192321759
C        13.76517622150715    8.98027335311661    3.39002091193188
C        14.49235980043610   10.17521522945799    2.78377575884679
H        14.43082464940658   11.04365998878282    3.43783611776904
H        14.06530011462021   10.44928352864691    1.79534332764436
H        15.54263944692179    9.93032595020330    2.63226420085445
C        14.20388025647005    8.79799219812356    4.84365454013437
H        15.28282027983286    8.66077803573859    4.89598672802267
H        13.72426459745763    7.92460536055862    5.28424714782801
H        13.93964996089488    9.67381678402208    5.43599029150702
C        14.09028643086270    7.72049366544185    2.58969063931813
H        13.84899041434109    7.87585791593147    1.53608585960972
H        13.52737977310342    6.86373863863034    2.95903744792618
H        15.15260879874122    7.49283927530677    2.66462137931701
C        10.46911082624031   10.99483197484181    5.50124910813227
C        10.09681000679654   12.37245253507704    6.04508201959394
H         9.61119736712308   12.96637446733875    5.27261524137743
H        10.97998979006450   12.90470611402819    6.39571150361480
H         9.40753307676708   12.27057196541645    6.88255076678100
C        11.12815700020481   10.17420695002630    6.61008500555743
H        10.43302472369520   10.03132833406838    7.43633889256318
H        12.01353014727741   10.68130107850282    6.99187910509036
H        11.42468710541925    9.19338108891486    6.23786407960206
C         9.20694023372663   10.28722527732928    5.02187568981629
H         9.42267123340790    9.25272680635835    4.76198875771240
H         8.78403794581386   10.79011934649832    4.15272166010877
H         8.46032466257012   10.28800774155727    5.81536284495998
C        11.51334285881739   13.91830016840844    2.45481215972673
C        10.85361903336558   14.66706869917960    1.29689142126732
H        11.31188523014521   15.64739695000839    1.16961181614662
H         9.78979762073374   14.80504973592543    1.48728648322330
H        10.96268209593948   14.11060232044329    0.36654625411079
C        11.35743051415756   14.72905343390371    3.73827103611333
H        11.81572560347189   14.20964433104538    4.57797679518513
H        10.30615838795704   14.90146855676179    3.96328227446883
H        11.84562495534563   15.69688910118435    3.62673297041755
C        12.99204357010605   13.69802760437062    2.16699212488921
H        13.11646044443733   13.01961093150990    1.31388891194967
H        13.48947680450753   13.26508125228689    3.03441472532926
H        13.47449069140188   14.64649347731341    1.93138102374263
Ni       12.96208884072410   10.51305798721720    0.00010114994283
P        10.94372462693712   11.37257757380941    0.70274422893598
P        11.59498854958656    9.40480417414490    1.23877516401500
P        11.86618994509105    9.17221753397877    3.41429956315376
P        11.79196752704637   11.24005829948035    4.14905795974532
P        10.55772299154500   12.27775310336297    2.63566611178610
C        15.74509735241651   12.81339965455380   -0.85859063057094
C        16.91554547218625   12.52879306549062   -1.79192211970828
H        17.77895516481136   13.12637214862970   -1.50156162193412
H        17.19288779069916   11.47522327782849   -1.74515031345271
H        16.65851428884756   12.77963813001048   -2.81903144111768
C        15.22665501138862   14.23233296053649   -1.06837040114286
H        16.01271752312053   14.95616538456999   -0.85751832550804
H        14.90291089338944   14.36767693880014   -2.10043632475718
H        14.38274114692061   14.43656688613937   -0.41248790733848
C        16.18359275292012   12.59857444706562    0.58582312614326
H        15.35603659164890   12.74549776035213    1.27508196025406
H        16.56606664482815   11.58612718768803    0.71322751501244
H        16.97445975536198   13.30162624950188    0.84398026386117
C        12.15948875617995   12.04627151127717   -3.38993936094258
C        11.43214097377428   10.85135559379812   -2.78366549925576
H        11.49353089269741    9.98292468220674   -3.43775510219491
H        11.85908943526366   10.57723178371456   -1.79524246369800
H        10.38184465254614   11.09637633323135   -2.63219599807212
C        11.72060490895399   12.22858386831662   -4.84342925614679
H        10.64167608364293   12.36584520460859   -4.89560710179587
H        12.20017616366711   13.10198207715478   -5.28404130459319
H        11.98470337656334   11.35279026820212   -5.43586659496853
C        11.83431740674311   13.30597936515729   -2.58953711282813
H        12.07559277244680   13.15062582072097   -1.53594613812189
H        12.39713554469763   14.16277416210464   -2.95888635138646
H        10.77196562148723   13.53359394159856   -2.66446096387537
C        15.45494309754259   10.03173879593379   -5.50121800782144
C        15.82734496425330    8.65419058494168   -6.04506322754505
H        16.31297323563933    8.06025146062411   -5.27262417421456
H        14.94419288981387    8.12190849885377   -6.39573607050185
H        16.51662133600043    8.75613539676483   -6.88251341023101
C        14.79596781313614   10.85236704102015   -6.61006578290262
H        15.49112762265231   10.99522684584391   -7.43628130723079
H        13.91060986316425   10.34524604455970   -6.99188479834480
H        14.49940513971215   11.83319344605461   -6.23786822913598
C        16.71714075085342   10.73939970661992   -5.02183747437669
H        16.50143132195022   11.77390545251081   -4.76197232354688
H        17.14012608973573   10.23652709246208   -4.15272362578962
H        17.46375230194426   10.73863897187696   -5.81536802227094
C        14.41090583697274    7.10824601337664   -2.45493387910978
C        15.07060551461017    6.35948786303672   -1.29700441173675
H        14.61233572760388    5.37915168506997   -1.16973926558010
H        16.13442745243729    6.22150290256740   -1.48737275095739
H        14.96151134548918    6.91594113171544   -0.36666263544534
C        14.56682001819873    6.29746307798607   -3.73840505194647
H        14.10852262725992    6.81686385635097   -4.57811689048874
H        15.61808720089957    6.12504295300702   -3.96340586376874
H        14.07861509729652    5.32962613152195   -3.62685705021864
C        12.93221541047442    7.32851401533673   -2.16714263073662
H        12.80779872257351    8.00693315471667   -1.31402364865739
H        12.43478563077815    7.76146724991346   -3.03456374434884
H        12.44977293458446    6.38004849804245   -1.93153635123919
P        14.98068115193345    9.65453551722373   -0.70319484092357
P        14.32869728979264   11.62223541437747   -1.23868240301458
P        14.05840470681707   11.85421580320090   -3.41436031285186
P        14.13193534771537    9.78639189623286   -4.14925129439260
P        15.36641461161881    8.74886518972722   -2.63600541492525

