113
CSD_code = LIPDIY | q = 0 | S = 0 | Stoichiometry = C48H57P7Pd | MND = 4
Pd       14.84267500779508   14.52198097478465   12.70504004242969
P        16.51782574714942   16.11531452808983   13.13204812629935
P        15.94889798090086   16.18226615709429   15.23248093514622
P        14.02180848261778   17.23410081001081   15.34262609660609
P        13.18123775553067   16.90241620413692   13.33433671257263
P        14.86972668214950   16.76979697456628   11.96539992038825
P        15.84536668072430   12.68597163088331   13.77129308918812
P        13.17246079750499   13.62985525697068   11.32954352249094
C        17.09426215641164   17.57213988756596   15.83036352599913
C        18.52496849922381   17.05564112485061   15.69507891520837
H        18.75978186810287   16.84837168947805   14.65123503326529
H        18.65373848673093   16.13483848936774   16.26210665086181
H        19.23249444391735   17.79588311056644   16.06752439485473
C        16.77613403737758   17.81483039185600   17.30352698479244
H        17.43146783105409   18.58367626578222   17.71118154169734
H        16.91829962062348   16.90101112916482   17.87930599751807
H        15.74375632784949   18.14308239114463   17.42353172712492
C        16.93002644926275   18.86346356812860   15.03743310212961
H        15.93473436693630   19.27981089447689   15.18555076150047
H        17.07589193900458   18.68060841841658   13.97168771130944
H        17.66370679951858   19.60102791966878   15.36241868679345
C        13.07470370507606   15.81687365353081   16.20535042412161
C        13.28490723861193   14.45879308504042   15.54158539074237
H        14.31173710961437   14.11111209501888   15.70003799955417
H        13.09469374663979   14.51625600256299   14.45464386924278
H        12.60732396970090   13.72137988678748   15.97470059538456
C        13.57273544882325   15.75879376804656   17.64971790848156
H        13.04478686609587   14.98112792216825   18.20094863940553
H        13.40663282420250   16.71063628799810   18.15254432344840
H        14.63982260555549   15.53774008661146   17.67566627963028
C        11.58843176978033   16.17281589349880   16.19181466112146
H        11.01520552133015   15.41833317098752   16.73041966455474
H        11.21691058844593   16.22682026319805   15.16877801883135
H        11.41964014675835   17.13597084392095   16.67147535617361
C        12.57806290239753   18.65412237423797   12.92565232399172
C        13.65721191287088   19.71234557784033   13.12050493024231
H        14.55781788779611   19.44946077336921   12.56382045374529
H        13.91287393759898   19.80862950563970   14.17482518515642
H        13.30375721575292   20.67969332464409   12.76386733558032
C        11.38258359628343   18.95091480356767   13.82596897327577
H        10.97672592278220   19.93684815348258   13.60174889992115
H        11.67989971546679   18.93177824025468   14.87382848169613
H        10.59629580943129   18.21314447625030   13.67150623381547
C        12.12662940511740   18.63173608664846   11.46682866808310
H        11.70910165308859   19.59770246423534   11.18406390510659
H        11.36631787365877   17.86746763821980   11.31287533402275
H        12.96768979121859   18.41474300123878   10.80849277319671
C        17.22470329623091   12.97179452151661   14.93045634500612
C        18.49904055768392   13.28621774510722   14.47037684689050
H        18.69991883104047   13.30816055976091   13.40809687401117
C        19.51121078079619   13.56686112693079   15.36960742553482
H        20.50072514871427   13.80309451122234   15.00595666016034
C        19.25895543758074   13.55517617257852   16.73170339127319
H        20.05175516143412   13.77716205648092   17.43135615674571
C        17.98481157502650   13.26860869270977   17.19451630302855
H        17.78035660183707   13.27124863735436   18.25574959113576
C        16.97080645452339   12.98259817471837   16.30039341822004
H        15.97831974365469   12.75174987508259   16.66555973095709
C        16.70387329549460   11.90279150042791   12.36066841379342
C        17.16303445623127   12.76982633543882   11.36833691504282
H        17.03723407599873   13.84924858253246   11.49848199161329
C        17.77873529314206   12.27540855550185   10.23395895366961
H        18.13009254261442   12.95430772495973    9.47094356994533
C        17.93379986716367   10.90812960922401   10.07289158161737
H        18.40501755937848   10.51748744995795    9.18296911068865
C        17.47643626394273   10.04204026531801   11.05202186218311
H        17.59259549207003    8.97502797297349   10.92571716951115
C        16.86352204631067   10.53209577158225   12.19225886232270
H        16.49122540178364    9.84512532569894   12.93826966102355
C        15.00130939396788   11.28229925141845   14.57164334952459
C        15.69862779456897   10.26929466086949   15.22503962341120
H        16.77525480721232   10.32644424849509   15.31304637262153
C        15.01161992202302    9.20082978895118   15.77015508635345
H        15.55529665114071    8.41373005131448   16.27286879671530
C        13.62995780185082    9.13483394981877   15.67338440081210
H        13.10011258993999    8.29463964831348   16.09778876072573
C        12.93082718671740   10.14937710059171   15.04278947863455
H        11.85369968048227   10.10707806371443   14.97369808859644
C        13.61604660003310   11.21987046461760   14.49817204957637
H        13.08019549783923   12.02146812420636   14.00614922223131
C        13.83212030319757   13.57710244773755    9.63060908293146
C        14.99822188549838   14.27234922062194    9.33405690737690
H        15.48789744947438   14.85929410830713   10.11254403894047
C        15.52677707920555   14.23631265755284    8.05566982883755
H        16.43035377043597   14.78405201114651    7.83069398379916
C        14.89580773561328   13.50142430092124    7.06716358903674
H        15.30772564417377   13.46893852964690    6.06898112509469
C        13.73081480496664   12.80697003360945    7.35662557232857
H        13.23549766375526   12.23677501641032    6.58380754752347
C        13.19826825303759   12.84177868850819    8.63088010119255
H        12.28981685901344   12.29947841734594    8.85646961125394
C        12.57695830471201   11.90657381397505   11.44338828237347
C        13.53980539140448   10.91863119952406   11.24652567529794
H        14.54820821801503   11.21245508792415   10.98447246170912
C        13.21473085710306    9.58442419538989   11.37818529428872
H        13.97162504469438    8.82929198657489   11.22359817199209
C        11.91947719571357    9.21849173481524   11.70966293721020
H        11.66214341082727    8.17513026088254   11.81748890910326
C        10.95592915350369   10.19409704572262   11.89818123236369
H         9.94270689290229    9.91166552128491   12.14676392692630
C        11.27897966554583   11.53431042612351   11.76955212183721
H        10.51684184783667   12.28684509902851   11.91515824018032
C        11.62487017342531   14.57279073427717   11.15547123265407
C        11.22284339911986   15.18022733553966    9.97273508195052
H        11.82827137800479   15.08774562664766    9.08258163074875
C        10.04744102460633   15.91077363278675    9.93720295546099
H         9.73788523558533   16.37987060329992    9.01442901919759
C         9.27210266368025   16.04959756098280   11.07680802199959
H         8.35706932159874   16.62271372491477   11.04206320180402
C         9.68010622443427   15.46553975307509   12.26555602683344
H         9.08426494936220   15.58241437144562   13.15986679282219
C        10.85495740662160   14.73937092955003   12.30710777306795
H        11.18220185989615   14.28531020911635   13.23509345141785

