115
CSD_code = LIPDAQ | q = 0 | S = 0 | Stoichiometry = C32H72P10Pd | MND = 4
Pd        0.09822533361472    2.49060449461296    5.93284830829235
P        -2.10356399201767    3.21029348488792    6.71272164923615
P        -1.29122541528017    1.31837303885789    7.28327375714612
P        -0.89973788762003    1.13537477524694    9.43171900030977
P        -1.04527879862037    3.21665134702736   10.11101532821082
P        -2.36710956728974    4.19483690702713    8.63274573063954
C        -2.61031866974571    0.01957851662992    6.92230853678425
C        -3.77980339161493    0.21375038128194    7.87907180210655
H        -4.13588361889060    1.24409801105658    7.83763584325697
H        -3.48230491028425   -0.01377405022724    8.90149771299744
H        -4.60107655252468   -0.44774914354502    7.60604178032986
C        -1.97866442586389   -1.35558503082275    7.11216021899775
H        -2.70047454042818   -2.13761876464600    6.88014604308759
H        -1.65566371759826   -1.48214656349344    8.14578932265233
H        -1.11301347645451   -1.47624730034305    6.46250970418975
C        -3.07499651205377    0.22187936422369    5.48347953817087
H        -2.23321882226097    0.19469612218353    4.79243531288654
H        -3.57122554002583    1.18808081941405    5.38449922337903
H        -3.77989508643427   -0.55950085093609    5.20260376200970
C         1.01003385788244    1.00906344682829    9.33545297654386
C         1.47672090262576    0.74236351883913   10.76805809808604
H         2.56008529359712    0.63673763011088   10.79679494454844
H         1.03065585942244   -0.17321975107421   11.15502752379619
H         1.19386778076643    1.56781752524742   11.42100380832530
C         1.35904448776433   -0.17930321049589    8.44102576047510
H         1.12763216384508    0.06009521967049    7.39620600390358
H         0.80799210995596   -1.07279522574973    8.73325225344468
H         2.42465405073698   -0.39486693660580    8.50896897334658
C         1.70334011665150    2.25875850675733    8.79730173690798
H         2.75940392126699    2.04228205147085    8.63246555931687
H         1.62920343452677    3.08248817321178    9.50649516331776
H         1.26669401371789    2.57432647241533    7.82507501887039
C        -2.32077449867949    2.95524842847866   11.50176873451712
C        -1.60894358044648    2.18145166423065   12.61147764564543
H        -2.27858872749319    2.03675356996307   13.45809420207962
H        -0.73084464138525    2.72492653615449   12.95848195767689
H        -1.29104695920952    1.20156396259177   12.25443367153106
C        -2.72439882518124    4.33298316877917   12.02310662288353
H        -3.23709277715878    4.89807431262226   11.24618907523939
H        -1.85137546220438    4.89668462965068   12.34904735299304
H        -3.39837734105249    4.22867286565390   12.87243510337646
C        -3.56828107231758    2.19534111089316   11.06378841217964
H        -3.32038354391554    1.16730458230112   10.80551447801735
H        -4.03263801492183    2.67334262727749   10.20144483060133
H        -4.29324066929135    2.17571489169384   11.87701240385262
C        -1.39021848175992    5.80829582049099    8.34356321531474
C         0.06982508156993    5.55510200315505    7.99013134617160
H         0.14746487768046    4.84098020352091    7.14945451045844
H         0.60430726021902    5.15188001788666    8.85031141357885
H         0.54728297234165    6.48981750315822    7.69615811675591
C        -2.09516901857120    6.53355275404952    7.19757410426879
H        -1.62358786081187    7.49793985679987    7.01045926095551
H        -3.14417917329733    6.70178250595075    7.43900236046256
H        -2.04840556688076    5.94055131932035    6.28369656161025
C        -1.46927220600118    6.65538837494168    9.61139829619742
H        -0.98648610773277    6.14584222116841   10.44394430056567
H        -2.50550295903503    6.85618358190315    9.87841637512893
H        -0.96550336735454    7.60848951323623    9.45327540972898
P         2.30037311344588    1.77087984891315    5.15283000109301
P         1.48807565641031    3.66235578126154    4.58209244760613
P         1.09657356479197    3.84549596829875    2.43391570370699
P         1.24159945180663    1.76376420593996    1.75624199224589
P         2.56432805039258    0.78503104937447    3.23363317133867
C         2.80716001171367    4.96101636696140    4.94360190815781
C         3.97665584500699    4.76675414318729    3.98690397394342
H         4.33271138977597    3.73641674041212    4.02854067510053
H         3.67911231232551    4.99402761931265    2.96443453901444
H         4.79792432368376    5.42832568325703    4.25978099113050
C         2.17578219799665    6.33630308381260    4.75366777459989
H         2.89766841729443    7.11829257535306    4.98559876866362
H         1.85277026296109    6.46283488296977    3.72004690058019
H         1.31015486409529    6.45715019582072    5.40331937591322
C         3.27176250711268    4.75901074829785    6.38250898397033
H         2.42995383085464    4.78658778387240    7.07350455767572
H         3.76770219864090    3.79269611334352    6.48171409664169
H         3.97687393887369    5.54023820110020    6.66329961251473
C        -0.81309779348459    3.97256123606623    2.53071400079817
C        -1.27988836589581    4.23950112967391    1.09820377288856
H        -2.36320765718911    4.34563167505381    1.06958420544053
H        -0.83337910259111    5.15483113500840    0.71113116898673
H        -0.99748399624444    3.41386203243389    0.44531659172148
C        -1.16168357472582    5.16104850405439    3.42515050876909
H        -0.93034513450781    4.92152363812053    4.46994770884546
H        -0.61018803856256    6.05427514993002    3.13295494511785
H        -2.22719897409402    5.37712397636918    3.35728399159579
C        -1.50681447033777    2.72313650051046    3.06899418960757
H        -2.56275414989812    2.93999214536365    3.23408038803275
H        -1.43316520565718    1.89941496698023    2.35977163971432
H        -1.07014991409709    2.40724906889602    4.04107973821318
C         2.51624172318245    2.02454966004427    0.36447551133714
C         1.80451643780944    2.79865565294661   -0.74512555776143
H         2.47383513766398    2.94269621639399   -1.59211890147183
H         0.92584812124551    2.25579912582379   -1.09165605934690
H         1.48754773454740    3.77886518671840   -0.38814493938139
C         2.91877277886219    0.64655916740870   -0.15708731435347
H         3.43154568530277    0.08115280882790    0.61954768558359
H         2.04523580723024    0.08338014878591   -0.48256880412152
H         3.59235180744519    0.75039249970701   -1.00679569992891
C         3.76451590542114    2.78367849006336    0.80164075193153
H         3.51736525078494    3.81180026764620    1.06030053099128
H         4.22919670422180    2.30525536521453    1.66357443088010
H         4.48892175340552    2.80305218718823   -0.01209631918947
C         1.58627607777330   -0.82767675834456    3.52302062360475
C         0.12630111269262   -0.57407016122838    3.87648667565503
H         0.04889303479258    0.14013854335627    4.71710449740306
H        -0.40807683291024   -0.17074127006729    3.01629559707889
H        -0.35144103224992   -1.50861073495811    4.17053719244012
C         2.29107102567920   -1.55276392837730    4.66919047421463
H         1.81911420198334   -2.51690188537666    4.85663129312206
H         3.33999656735726   -1.72146710771402    4.42773913892517
H         2.24459480229339   -0.95945305254693    5.58288395065134
C         1.66498108939993   -1.67519417717105    2.25544996755599
H         1.18216667869239   -1.16586938953205    1.42279250197671
H         2.70111064640741   -1.87635359262257    1.98834566441558
H         1.16102448275389   -2.62811641717790    2.41401862682273

