76
CSD_code = LIPDUL | q = 0 | S = 0 | Stoichiometry = C32H35ClN2O4RuS | MND = 9
C         8.57730956569753   -1.46725072539916   16.04999725058598
H         8.06998365760780   -1.46743821536010   17.01397535767335
H         9.60804875229636   -1.77527579037242   16.21887177391523
H         8.09803663766236   -2.19793335881950   15.40354220210391
Cl        7.50376175857282    7.04272753561674   12.79729204624173
Ru        5.96782102770690    5.36249972289282   12.29569332001035
C         8.53520337364753   -0.09734212033123   15.44261873337887
C         7.92097958328803    0.12671458064884   14.21646077849544
H         7.47617937144106   -0.70234226867110   13.68347319476386
C         7.87355037161781    1.39933550955735   13.67289680997789
H         7.40188802686802    1.59025367812376   12.72217578181820
C         8.44562764875924    2.45298559136695   14.35607645741211
C         9.07244732324359    2.24824404249107   15.57024941819920
H         9.51308236124224    3.09503928320640   16.07167587814476
C         9.11689974140434    0.97674332588827   16.10975089388082
H         9.60217035412004    0.81166210251253   17.06081232396404
O         8.45015505647112    4.06680429858523   12.28988343147899
O         9.11336319828844    4.96282406177115   14.50803875417538
S         8.25267848304147    4.11918323096367   13.72470356272753
N         6.66374197148915    4.38053366288162   13.96266567302041
C         6.38786535368114    5.06407140072115   15.20416312920767
H         7.11970957654663    5.87567865612645   15.35429318769349
C         4.97222268501876    5.67905412084725   15.09355446405121
H         4.24427149075729    4.85665289294984   15.09300432462467
N         4.87146320690646    6.36991570793716   13.79549327062203
H         5.49457003849958    7.19530712566109   13.84075553126089
C         3.51306095582770    6.83459669678025   13.52049883649891
H         3.21106454107066    7.54293842132262   14.30364884822227
H         2.83233488353615    5.97713782493000   13.56546698435775
C         3.41180115293559    7.51469735152089   12.15371932490696
H         4.33233078717069    8.07515313685789   11.97089645795407
H         2.57855791977408    8.21889077279243   12.16837372958391
C         3.18605006728596    6.51643096342320   11.00799909177691
H         2.27589037656207    5.94444919988170   11.20352223673098
H         3.03910551018096    7.07714542555815   10.08236320112004
C         4.35758124962144    5.58165691451492   10.83961775393101
C         5.52679450450393    6.03569102677830   10.19417471734402
H         5.58544356395583    7.03457817222555    9.77815606876602
C         6.58256654242778    5.12313904958996    9.88066377358936
O         7.58802651871811    5.61775190818134    9.14361131180391
C         6.48764350048843    3.80052833027110   10.30703306316107
H         7.25774819119104    3.07428791068357   10.10041878193464
C         5.36920909858548    3.37132843958786   11.07547369131097
O         5.39136790161199    2.06352946015636   11.43447359001144
C         4.27396541094455    4.22670857738585   11.28262653697160
H         3.34434311912832    3.85826154677342   11.69703468534939
C         4.46559941181275    1.63072950353068   12.40736971543199
H         4.47397750348681    2.30463580803306   13.26998559863761
H         4.79579727620853    0.63992687020012   12.71455187078546
H         3.45244662156283    1.56282036626359   11.99688019781832
C         8.82049368370303    4.91346047340818    9.13790100579550
H         9.10152732974565    4.62659327340335   10.15494284954069
H         9.55163092022003    5.60898864959779    8.73044314786722
H         8.76287788081557    4.02660695699265    8.49932869588363
C         6.46704684554785    4.11268860868571   16.37206528822854
C         5.92176558635173    2.83971565355380   16.26971251726549
H         5.44749808598662    2.54709596845156   15.34505431515757
C         6.01531376572261    1.94713932285123   17.32076048912403
H         5.59683475535921    0.95577824555514   17.22384503165836
C         6.64944156590553    2.32327587271367   18.49256994901782
H         6.72699042064649    1.62663745752257   19.31451627320159
C         7.18713137338175    3.59381374478931   18.60549495307750
H         7.68433127902155    3.89050834501317   19.51732685033155
C         7.09763439270857    4.48484217829605   17.55035795854832
H         7.52808970925800    5.47154138000067   17.63294412570827
C         4.72714521157292    6.59388789053217   16.26577637082956
C         3.87289104958660    6.21096530164965   17.29092806806182
H         3.35806498244899    5.26283515116400   17.22955309585464
C         3.68742649120517    7.02766353021654   18.39292050840202
H         3.02292682162742    6.71702405475887   19.18538395226448
C         4.35330856839868    8.23768948323320   18.47887257676700
H         4.20892912930626    8.87584896111337   19.33773975087106
C         5.21194553635624    8.62361613429458   17.46269093738146
H         5.74098361138125    9.56240191398803   17.52910650439309
C         5.40321371844909    7.80610535405444   16.36354761621702
H         6.09452006082100    8.10701436510547   15.58863955113113

