80
CSD_code = LIPGID | q = 0 | S = 0 | Stoichiometry = C33H43N2OY | MND = 11
Y         5.90115433845417    7.51134339577743    5.48668601744163
O         4.77358468929747    5.74986706518805    7.15957483725949
N         6.39903212799534    5.59088635006921    4.30712407457662
N         7.83708091072576    6.33570870413736    5.75785010864893
C         5.68180306008845    4.84767274318787    3.29300562854054
H         5.72523499099476    3.76276426372120    3.46937806909038
C         6.11856013225411    5.15131415829186    1.87254860385663
C         5.85217734184439    4.25100260523196    0.84802548491789
H         5.37575720409595    3.30703743616612    1.07528826276248
C         6.19975135372017    4.54887004409093   -0.45722287486297
H         5.99102853690832    3.83916504812604   -1.24474788273702
C         6.81391899667360    5.75379173542771   -0.75469158616931
H         7.08515117110846    5.98653639212780   -1.77396752699567
C         7.07831666810728    6.65761322575880    0.26022194708019
H         7.55492604076522    7.60033816397740    0.03363110759082
C         6.73059832738457    6.35880506760448    1.56547147467065
H         6.93869201475472    7.05763435888506    2.36616223711291
C         4.20012766894429    5.26052046934325    3.39614309330590
H         4.10105673933244    6.32337477744936    3.16549579167122
H         3.82632043157137    5.07622235719239    4.40387438515392
H         3.60187648929454    4.69209665834373    2.68596603528622
C         7.59445638162662    5.38374286144182    4.85121322820041
C         8.60297646268310    4.26265578126821    4.51915335082959
C         8.61211225426231    3.22193265109862    5.65096719368962
H         8.82137854364785    3.65795850271385    6.62215962562498
H         9.36997530304829    2.46741747335517    5.44513274462183
H         7.64327450391802    2.72823117595244    5.70912320668719
C         9.99870049758759    4.88227850593958    4.31202785241955
H        10.66008325057851    4.14975681851060    3.85225020752398
H        10.46691114195553    5.20430854844143    5.23348803362716
H         9.92263869202820    5.73773698895922    3.64432965127237
C         8.32361343977091    3.48585731409932    3.22427829676663
H         7.44595793045912    2.85325907423898    3.30164939327346
H         9.17009431302888    2.82937771609795    3.02451885888294
H         8.21025161337374    4.15441435602770    2.37745073112565
C         8.84741480589986    6.40458132039470    6.79954640724568
H         9.48132035758379    5.51349922573368    6.86849425064202
C         8.09380529357510    6.52250392430208    8.11508537647673
C         7.28895382630781    7.63060898794622    8.37772749629538
H         7.28347063750120    8.47881939252173    7.69847609858791
C         6.55760609676984    7.70811522174882    9.55197870023384
H         5.95239810122362    8.58237508484423    9.74497938378478
C         6.61628768159873    6.68284153348857   10.48222788223007
H         6.04741521476019    6.74433526885799   11.39880498909825
C         7.42061748468064    5.58389868761222   10.23556775266253
H         7.48814700241235    4.78660410292544   10.96253800595159
C         8.14975667451560    5.50531006670464    9.06002049661387
H         8.77740854866391    4.64128506800124    8.88588377460698
C         9.75936430991242    7.62367130429223    6.58689731746777
H        10.37026087707025    7.48438487710579    5.69849004288808
H        10.41114922501893    7.75604837183421    7.44845050559767
H         9.16365622685591    8.52340957698136    6.44883899411830
C         3.73098710089804    8.87143756693472    4.06161336633874
H         2.82452322563676    8.69162056234923    3.48894690108869
C         3.63250654092628    8.48696532263304    5.43346586318904
H         2.70879921455648    7.93916681839382    5.64176195517163
C         4.21707879389386    9.02417163956508    6.62437143182864
H         3.62753815539733    8.80297756812705    7.51621499611502
C         5.17244346969822   10.05585829636311    6.84041770415896
H         5.06660825523770   10.56799240524462    7.79327001278205
C         6.30721616295639   10.36043928497189    6.12108532462966
H         6.98589604498232   11.07153551687341    6.58663349492577
C         6.82340767730114    9.75262225480745    4.93078497398381
H         7.88287850280317    9.98069566001211    4.77841991878240
C         6.18837682869691    9.37360790995872    3.70944092009921
H         6.87678262334962    9.38041993773819    2.86217974359446
C         4.83111960852829    9.26334677086374    3.32256218412915
H         4.66452687675959    9.35606496833278    2.25290933003360
C         3.72205503949213    5.91645771327097    8.12246509682481
H         2.87330470969422    6.39771787577569    7.63052062399955
H         4.08973018021184    6.56506279481323    8.92739641714338
C         3.38745946357985    4.52685615044215    8.65615994335658
H         2.99872651860116    4.56053298941675    9.67082955447732
H         2.65685425847061    4.03493751558448    8.01286243188657
C         4.73976343262144    3.82963716056661    8.55266588277800
H         4.66313338616860    2.74559103541401    8.51882357451272
H         5.37963268644053    4.12034867441859    9.38616337899302
C         5.27959068314546    4.41238706719992    7.25184129985057
H         6.36926514791636    4.45639015222410    7.22125294979442
H         4.92038948523027    3.83987358435187    6.38647358826842

