55
CSD_code = LIPNON | q = 0 | S = 0 | Stoichiometry = C20H32ClNRu | MND = 9
Ru        6.66395435400746    4.15055591364056    0.99411720283324
Cl        4.82293672275749    2.82278832651495    1.74971300844253
N         6.84392733832900    3.12025415086017   -0.78724718961256
C         7.04294342702191    3.88581753972817   -1.80397977377870
C         7.01145030873426    5.32270526370556   -1.63723222565808
C         6.35087488283012    5.74305785133881   -0.39726098286831
C         5.09622457989407    5.19929902875887   -0.03612456118710
C         4.13698230382992    5.98835259978850    0.81519482029951
C         7.57599972045390    6.16028856265086   -2.52066397730163
C         6.74917564393611    1.67480437992895   -1.01752392233879
C         7.64924028503881    1.18285699345756   -2.16334207684857
C         5.27714235662119    1.38792667028313   -1.34861483894021
C         7.14351240772795    0.92365712379214    0.25261692375487
C         8.83129182296132    3.78756605301330    1.76578674347095
C         7.89287442518668    3.36519420319197    2.73931431270878
C         7.12883973061362    4.52928237921551    3.15571915705880
C         7.57792692215951    5.63900680291446    2.40747169287700
C         8.59148299828782    5.16636200068484    1.48672011455148
C         9.98972408209287    3.01978384875073    1.20613573789629
C         7.86253418689047    2.07000175670653    3.49148303210259
C         6.21630552440133    4.53982796652259    4.34263136691432
C         7.29485508444543    7.07813014733653    2.71697149601519
C         9.52083725666238    6.02691068401551    0.68648917678717
H         7.24180894941117    3.49507914386848   -2.79679448811144
H         6.56907864730340    6.75834379807164   -0.06997617008793
H         4.58616792120189    4.55853688714727   -0.76769699889691
H         7.56100786060705    7.22600427699921   -2.37431235474034
H         8.07527912794015    5.79936399151687   -3.40342763664102
H         3.53092763071306    5.31424967330514    1.41968010027889
H         4.66467480175073    6.67603308390740    1.47314199070920
H         3.46144936160257    6.56459326244630    0.17963390884225
H         7.71977510501446    0.09978462405795   -2.10964840542654
H         8.65252765612747    1.59519749903717   -2.07080843090223
H         7.24842036245208    1.43553746017532   -3.14207318580518
H         5.13535004278532    0.32380069952669   -1.51534563440042
H         4.97524535028213    1.93074340033575   -2.24314726364930
H         4.65058904324438    1.69961106009954   -0.51526974127768
H         6.55954709791254    1.28550299315947    1.09354024139091
H         6.93914446890473   -0.13674834587335    0.12919581886425
H         8.20309323826198    1.05255015080758    0.45265138937881
H         9.99521769460535    1.99255935782249    1.56168952643201
H         9.98026810766099    3.01523320396771    0.11630377557788
H        10.91893288458160    3.49514248068023    1.52674784482380
H         8.25153512822058    2.22671280369686    4.49981878839823
H         6.83971077423785    1.70475594227133    3.57915657033248
H         8.46202694102883    1.30539651261976    3.00410988711289
H         6.79780024709579    4.39687390428650    5.25593752174993
H         5.48847933012540    3.73177611679980    4.27178591224480
H         5.67766918603489    5.48171047079375    4.41703188674401
H         8.00473375218268    7.42449213795841    3.47196036126506
H         7.40572179724872    7.71404388604123    1.84109132691125
H         6.29103727906870    7.21025255823105    3.11599989578336
H        10.43367393588098    6.21144435646722    1.25795687527377
H         9.07202850592323    6.98768004911308    0.44779716800837
H         9.79914140570774    5.54001231386412   -0.24710571735897

