62
CSD_code = LIPTEK | q = 0 | S = 0 | Stoichiometry = C28H20Cl2N2NiOS8 | MND = 6
Ni        2.14114871861020   -1.67365350430681   14.48715040362284
Cl        2.19040141402633   -2.98331350224166   16.10617848248305
Cl        0.81927298325477   -0.40737534220427   15.47836256317727
S         2.12181869198789   -0.20219658869431   12.67712652996585
S         3.67787933988513   -0.22648355248747   10.08115143163140
S         8.00733154759379   -3.38014803770725    4.53515418166236
S         9.71409118243335   -5.38192846535571    3.19156115976426
S         9.03152576646919   -7.36379958535353    6.03796564210691
S         7.47966574318489   -5.02210055573761    6.94480613241809
S         4.68521643900268   -2.99077315631413   10.53136015183138
S         3.58618696187614   -3.09879486903566   13.34692147642544
O         5.92700391113550   -2.73270324203388    7.90162581127868
N         0.60405326080465   -2.91439161045462   13.25170558560161
N         4.05915752471083   -0.43880994671467   14.96701473229806
C        -0.63204110000899   -2.48705165480426   13.03160725842344
H        -0.95109220422200   -1.65106464343146   13.64140924579571
C        -1.46461332898103   -3.06622298544657   12.08783285391357
H        -2.46487945910684   -2.69176123051353   11.94152064074256
C        -0.97917279485521   -4.12559379534939   11.33827500003180
H        -1.59161598991784   -4.59619518074368   10.58310354549156
C         0.30878849649728   -4.57733513614645   11.57327274950527
H         0.71953280906766   -5.40495129482108   11.01508944153982
C         1.06576109382230   -3.94928300418603   12.55465114670164
C         2.43922301806846   -4.44225200070945   12.89652955194152
H         2.88663393654884   -5.02191395102019   12.08939144389892
H         2.39775848071541   -5.03968291112754   13.81126600499229
C         3.72882396333998   -2.25109411719385   11.80711375636133
C         4.60267623635513   -1.58643836265878    9.46350040325469
C         5.22952295825726   -1.60491030390953    8.26584823766199
C         5.33511852725477   -0.62401489505687    7.21943167042622
C         4.82994737773471    0.66007016582216    7.07838026540375
H         4.22045597471244    1.10419437562594    7.84980963956203
C         5.12894845601513    1.35298772620802    5.91931468266517
H         4.74722579630245    2.35389649836006    5.78627253309060
C         5.91321094325930    0.78366255692990    4.91983566093683
H         6.12693292593390    1.35278695696432    4.02784606557210
C         6.42273832558833   -0.49548597335070    5.04736677907121
H         7.02938535546366   -0.93339999526620    4.27059289009125
C         6.13075602616314   -1.20169893079504    6.20590436918410
C         6.48651480007690   -2.51681900759968    6.65972602945771
C         7.23129669486171   -3.49900854681215    6.10052747148183
C         8.73861255899106   -4.98527153202709    4.59841805918525
C        10.60203696499079   -6.84218406932430    3.82504821180561
H        11.12948779849688   -7.24148991728903    2.95905077918025
H        11.32449417512447   -6.51443816862089    4.57259485998934
C         9.64462920576316   -7.86600884248038    4.39602315591394
H        10.14778222676544   -8.81708625664737    4.56917974488459
H         8.79044947730686   -8.02048993053641    3.73673288595141
C         8.48279788328458   -5.73356261943499    5.68082565110855
C         3.25664804949700   -1.01236976736865   11.60052662930078
C         3.18316615543272    1.11979780213133   13.35426761314707
H         3.50754211128829    1.75816206240526   12.53304989128884
H         2.49986314396778    1.66199746863350   14.01280591871385
C         4.33070960562111    0.57332197433507   14.14558523513808
C         5.60525646296487    1.11296674584087   14.03105808274563
H         5.79447667878361    1.92238365602815   13.34225430506349
C         6.61771188835977    0.59668897642938   14.82328239057584
H         7.61890576838954    0.99632111128183   14.75555972195117
C         6.32182785756235   -0.43400390013965   15.70028962174067
H         7.07978743713733   -0.85611160055735   16.34018836272091
C         5.02567008606141   -0.92344836989235   15.73435782955052
H         4.73695366020753   -1.73482322310056   16.39049742853179

