31
CSD_code = LIPXUE | q = 0 | S = 0 | Stoichiometry = C10H11MoO8P | MND = 6
C        -1.13092262387936    1.69539399144053   10.29504213522877
C         0.86957045295495    1.46784537391868    8.34261874947270
C        -0.72084859456377    3.75893609282574    8.44388070495881
C        -3.00385448574263    2.15784572126809    8.24090037245988
C        -1.40086822803563   -0.09455824850024    8.11157016816334
C         0.35785743081950    1.05958803730042    3.94227016895708
H         1.31879792212441    0.57719746706470    3.74500190911789
H         0.32572195862639    2.01856222461208    3.41068951484050
C        -0.80302665299375    0.17099730030014    3.47528699992320
C        -2.10853990055489    0.87301405264500    3.87229156449281
H        -2.20191831023988    1.82421273130588    3.33724444696259
H        -2.97251504420959    0.24622887215766    3.63640078823858
C        -0.71770064132553   -1.19622474120915    4.15254391535046
H        -0.75264077544709   -1.08749001293522    5.23482135424412
H         0.21285797261217   -1.69205074238833    3.88670414292598
H        -1.54923737452160   -1.82444503779670    3.84245616115565
C        -0.74876488708129    0.02109033755967    1.95573758426418
H        -1.57739432134108   -0.59131502238016    1.60978728411009
H         0.18082348436544   -0.45782888329341    1.65904332410952
H        -0.80886494072492    0.99024567322802    1.46595889920646
H        -0.75147074812367    4.07195989443117    5.59289246697010
Mo       -1.06525870725300    1.83003057039197    8.34419736536239
O        -1.17040239754089    1.62267601734945   11.42968958938986
O         1.98361938895127    1.24600088139581    8.30722503991266
O        -0.51574376274324    4.88188955929288    8.42745798794925
O        -4.12247450282901    2.33495951202085    8.14526616458989
O        -1.58533331937336   -1.19723720555902    7.90610990884879
O         0.32886156908864    1.29151449535205    5.34826741183119
O        -2.18470589129510    1.10870240737966    5.27896990287080
O        -1.13966286865222    3.32135381459558    5.14192749716444
P        -1.01156120107129    1.93390486622742    5.97714647692735

