59
CSD_code = LIPZOZ | q = 0 | S = 0 | Stoichiometry = C22H30CrF2N2O2 | MND = 4
Cr        1.26130601673675   11.57197370208442   14.96498104488731
F         2.74282155992616    9.53109594931464   17.64135133103215
F         2.15638600692765   10.88571196735593   12.01608183407145
O         1.57417990438222   13.03859496703000   15.36861689346119
O         0.23757866575514   11.18708367908375   13.86776294393941
N         0.60692815078798   10.74583286701845   16.44418899461062
N         2.86905659803691   10.79909671886514   14.64018075178306
C         1.15781455898673   11.27890239814241   17.61142760099344
C         2.24378629161839   10.65533329608596   18.22154188272773
C         2.83268621431820   11.14384200426042   19.37024473853450
H         3.67519125587750   10.62613128357297   19.80188833807882
C         2.32473412266931   12.29585990083783   19.93974163337246
H         2.77691757616271   12.69199635338647   20.83629067036714
C         1.24339481285693   12.95757244325946   19.36356951231078
C         0.66818658521245   12.43861336158278   18.21442155595298
H        -0.15308622233443   12.95202833194256   17.73368951510260
C        -0.56713014746876    9.88432161821671   16.58393623716745
C        -1.82833639478676   10.72095035416274   16.31638849443349
H        -1.96059276310629   11.47315836458045   17.09094936284502
H        -2.70755323005887   10.08163675145031   16.29847792748091
H        -1.72863286934757   11.21855498292475   15.35219034693078
C        -0.64733862200713    9.26559869129331   17.98695240775804
H        -0.75902341994022   10.03067951298576   18.75255278051490
H         0.24568474701824    8.68295096737079   18.20179462857880
H        -1.50718236274312    8.60210586232053   18.03572374092436
C         2.70269833235112    9.61463700904709   13.91634840835166
C         2.34189158346280    9.66420236628305   12.56811462030022
C         2.14514688472236    8.52613231874897   11.81579976585461
H         1.85711835377999    8.61479660873576   10.78026069885683
C         2.31638095820791    7.29029090175863   12.41592095558676
H         2.16503116930042    6.39155464371517   11.83737753006781
C         2.66934643825863    7.19329964770510   13.75682874179929
C         2.86264649704147    8.35530703313342   14.49183418536018
H         3.12979204549677    8.29619788919552   15.53692382244141
C         4.20571852067151   11.39702811381233   14.67316644837135
C         4.26762076635843   12.52909741808487   13.63416586938924
H         3.44726233836589   13.22477431172651   13.80971223940790
H         4.17771156579387   12.13448365151381   12.62536224161328
H         5.21223419868905   13.06175225477998   13.71683156926597
C         4.45391224114903   11.98334075258191   16.06751172049628
H         4.49132736977975   11.19124540582641   16.81093369416632
H         3.65788588946917   12.67926023634855   16.32454068835587
H         5.40230291838280   12.51513033912391   16.08416588403682
C        -0.47252863067716    8.75424593899172   15.55261265620112
H         0.42301893033437    8.16043458669423   15.72547052874923
H        -0.42722378817838    9.17072162805264   14.54908804142629
H        -1.34365194486703    8.10745400844270   15.62540801252000
C         0.71207766595379   14.21103780328146   19.98946259718027
H        -0.06749801544906   14.65140816506437   19.37474926631203
H         1.51152700973800   14.93917730655569   20.11312335845814
H         0.30108067986125   13.99721798316346   20.97565633694668
C         5.30005714159228   10.36572315324359   14.36664753035368
H         5.27633174450809    9.54977608497988   15.08516477663874
H         6.27159036398948   10.85021061138020   14.42710255468551
H         5.18387852963367    9.95201767767161   13.36706189249731
C         2.83527065168655    5.84733866340770   14.39600353857022
H         3.07412335760948    5.94446756475458   15.45137511044577
H         3.63522750722575    5.29221261914040   13.90803518503455
H         1.91981369027557    5.26629897392530   14.29669436240252

