95
CSD_code = LIQBIW | q = 0 | S = 0 | Stoichiometry = C46H37N6OP2ReS2 | MND = 6
Re        3.97663119706246    4.73121921611371    3.12886419626585
P         4.14880335381002    2.49912240988483    2.14175590356793
P         2.95269510909908    9.42744246147701    5.55703678978374
S         6.46494440404742    4.60040151677426    2.79291977463923
S         4.41681490699159    6.64994519494272    4.54907623345506
N         2.07280184335685    4.44147620924282    3.63817499000722
H         1.25333485349728    4.67986058027025    3.06631795800815
N         1.73477723243142    3.82231894706687    4.71725578224950
N         4.03224886361976    3.76507337937704    4.99365968972213
N         3.50832666806849    5.62993469739814    1.67023117884597
N         3.06126083002520    6.27193931239951    0.76717184505030
N         0.84356886431219    5.64360808954462    0.96869873482925
O         2.94635318688279   10.78304063417172    6.12192311177187
C         2.79290974902937    3.50110372824063    5.49220187659339
C         2.61353825796699    2.91434079418820    6.75481786647952
H         1.60762980507422    2.71655000584469    7.08512333531146
C         3.71830962113694    2.63461171900537    7.51698654939299
H         3.61533634921551    2.19182362299792    8.49628595616644
C         4.98470820184131    2.93998533191536    7.01214066966662
H         5.87518494868454    2.74610392079274    7.58740954184461
C         5.08791748058870    3.49726868337948    5.75716070694647
H         6.05617469492374    3.74312070521747    5.33719055531615
C         1.76536349474129    6.39197205402946    0.34831349482523
C         1.46007944361939    7.26257858301700   -0.70276089728030
H         2.24603732524404    7.84228103661963   -1.15722905664570
C         0.14713942211368    7.34713843479033   -1.11553750400740
H        -0.13215806272005    8.01009469075944   -1.92113143655274
C        -0.81290606517004    6.56401991193552   -0.48314259198984
H        -1.84800542677039    6.60032848666739   -0.78242074449921
C        -0.40588349585893    5.73441000978913    0.54791942011189
H        -1.11652483175861    5.10308302894142    1.06813682409483
C         5.86503157823465    1.96751224365532    2.21226041094923
C         6.22266667169157    0.63508909143088    2.01298076821883
H         5.44565599645470   -0.10182859911737    1.85207690568379
C         7.55088601293472    0.26262656837933    2.03707402636849
H         7.82808062185068   -0.76950199663056    1.88554538477703
C         8.52955804979479    1.22764048575083    2.25922764340737
H         9.57035958448300    0.93915748232595    2.27388022242213
C         8.18646888179351    2.54326394490843    2.47281193872983
H         8.94318659994255    3.29034701744435    2.65801758264145
C         6.84473790872426    2.94262481486754    2.46188338242989
C         3.60880675874196    2.33337546773574    0.41459229788831
C         4.34261687460697    1.64375521514981   -0.54271197223315
H         5.27711768964575    1.17165278316771   -0.27643358409234
C         3.87848929740440    1.57733980061256   -1.84505865016746
H         4.45036571640302    1.04258524930026   -2.58900899126921
C         2.69235080186632    2.19891274493125   -2.19843634886681
H         2.33906167355904    2.14656160100515   -3.21750296698389
C         1.96741071945048    2.90069438353380   -1.24809470164194
H         1.05079985598929    3.40221355938576   -1.52312483366601
C         2.42455563991571    2.97295520851800    0.05376722632042
H         1.88290547953002    3.54761644256264    0.79525925919547
C         3.22433256970480    1.23611855059341    3.06057248563604
C         1.90773346753803    0.92811839207077    2.73320363555280
H         1.45803342485456    1.36259663801097    1.85180640683894
C         1.18338714669288    0.06327482208371    3.53253154472076
H         0.16297273961467   -0.17718306732117    3.27373024194196
C         1.75873120930292   -0.48730159100141    4.66611597149325
H         1.18697590994154   -1.15575713421736    5.29213393256265
C         3.06833661318045   -0.17973504515272    4.99755463904276
H         3.52017542561286   -0.60590923144559    5.88119435692365
C         3.79997746804107    0.67989051262678    4.20108698003221
H         4.82236166372795    0.92244957807396    4.46009597793846
C         4.58404178978015    8.11043436735564    3.60336648885547
C         5.30253139966397    8.12755229463659    2.41343032348801
H         5.72844128409539    7.20396515191758    2.04351630168474
C         5.46742147067043    9.31021924770474    1.71935963974704
H         6.02349694678928    9.30869149738960    0.79329502629757
C         4.93786874072083   10.49345320119619    2.21290296999344
H         5.07881650082385   11.41942320005539    1.67532576750366
C         4.22461987131172   10.47899424170682    3.39728487966293
H         3.80236685108690   11.38459753640672    3.80959220369063
C         4.03599500590080    9.29506054341657    4.09641528283434
C         1.31538968882172    8.92189426389104    4.93431293859354
C         1.09255808919615    7.77950828901429    4.17549321406013
H         1.91235682996322    7.11843558468399    3.92922225511393
C        -0.18724658535343    7.48823522105906    3.74094935994167
H        -0.36383764596057    6.59967633376074    3.15372419880799
C        -1.24159805396688    8.33328337615754    4.04990655263175
H        -2.23842411287253    8.09897022958540    3.70415217930238
C        -1.01907649676496    9.47688387540106    4.79867930172910
H        -1.83970099687491   10.13786965035472    5.03767641426415
C         0.25905855150736    9.76949539773325    5.23912126291869
H         0.46333812491579   10.65657528118760    5.82144115151389
C         3.44955630845718    8.18218409201849    6.79401326003831
C         2.61896248471046    7.15917999795388    7.22688301115772
H         1.62738176901656    7.05389973747131    6.80902974698359
C         3.08008374959242    6.25933324569366    8.17031713201875
H         2.44025806676988    5.45262567004334    8.50036099242450
C         4.36022277018552    6.38382829825344    8.68515626387055
H         4.71981630323077    5.66928888143669    9.41225008373288
C         5.17785825613001    7.42465899066203    8.27464841577032
H         6.17298585887343    7.52532003033564    8.68364478600717
C         4.72011342958005    8.32819044388106    7.33429039414500
H         5.34110147390077    9.14631849769739    6.99355627458644

