60
CSD_code = LIQLAA | q = 0 | S = 0 | Stoichiometry = C25H27Cl3NO2PRu | MND = 9
Ru        8.93327761267496    0.88343357064854   11.17559285498977
Cl        7.66661661602860    2.27903461935137    9.75946043979229
Cl       10.82614868135484    2.22947281553042   10.68003870915240
Cl       14.28135330115926   -0.44425124972073   11.28357048971058
P         9.57212717575570    0.22352564770609    9.11758200646397
O         8.46423664230066   -0.79701273317749    8.52629834726606
O        12.18988090854205   -2.26056890588454    7.85348907301161
N        10.95744742560982   -0.79169365408483    9.04935173726733
C        11.90044986217149   -0.89994662860797   10.14949169682127
H        12.12988189104500   -1.96027822341896   10.29761918701274
H        11.41574219893890   -0.48758874714019   11.03782007457426
C        13.20040812975892   -0.14355829179256    9.90755063403768
H        13.02219613005773    0.93152006257747    9.87486305414267
H        13.70336577270839   -0.50090683974690    9.00944062940144
C        11.17694733799958   -1.60045200816058    7.95649794413381
C        10.07488906251040   -1.68958448951461    6.97007460783977
C        10.33353750860487   -2.25185536074574    5.72146292071092
H        11.35534487190918   -2.50311259204690    5.48189089717012
C         9.30661774384924   -2.48337283823571    4.82854287236231
H         9.51857570563421   -2.90738855281522    3.85951409386603
C         8.00016123333542   -2.18472591928819    5.18609694780789
H         7.19223744359977   -2.37676513863771    4.49690458500764
C         7.72309720545775   -1.63167402145927    6.42360488894794
H         6.71469975259293   -1.38567745674157    6.71722567956533
C         8.75928869859975   -1.37164743223540    7.30729472792263
C         9.87379611532180    1.30509454615588    7.67520323357090
C        11.15137559925085    1.75852372551465    7.37523712340488
H        11.97845955729828    1.49476661915343    8.01548791367096
C        11.35392718551508    2.55952110145429    6.26580003877702
H        12.34733186531113    2.91594775511084    6.03870522741459
C        10.28740406067827    2.90894908504919    5.45496739475923
H        10.44876909148032    3.53727185331576    4.59172568100552
C         9.01179848382606    2.46059819496374    5.75642676800889
H         8.17667438066139    2.73953927170828    5.13181197981344
C         8.80080684167980    1.66301724051143    6.86517273434635
H         7.80380699170596    1.33518169954156    7.12039407278351
C        11.14628470231211    0.42096107102043   13.78334000427109
H        11.68970037721234   -0.51718505894285   13.69649243407955
H        11.12132256001672    0.72162549321020   14.83011721130235
H        11.69245477895648    1.18728295648179   13.22899607161990
C         9.75483623650176    0.30223629767607   13.24210775533735
C         9.29940390140544   -0.86882634972139   12.61272590373148
H         9.94243423377862   -1.74136987455537   12.56691190674952
C         7.98095210311622   -0.94826212139223   12.09198090072135
H         7.64828816762290   -1.87777118787702   11.64586228882391
C         7.08232713371053    0.12628620250940   12.23298073973301
C         7.53270477849133    1.28814348590210   12.92512843411984
H         6.83486348340919    2.10223447282138   13.09386683732476
C         8.83827664407904    1.38330788361698   13.40556728309312
H         9.15764875719600    2.26571343979729   13.95000463633719
C         5.64670214908214    0.03396686362043   11.77655782911763
H         5.25309336757113    1.05360607994159   11.70238738302202
C         5.51633221728393   -0.61578802847321   10.39948686497042
H         6.19143532777058   -0.12720210601734    9.69909592624669
H         4.49786131666206   -0.50306729935072   10.03670048293092
H         5.74921093557229   -1.67761363117392   10.43341343511424
C         4.83610617988043   -0.73023253016575   12.82939208214604
H         5.20748818953826   -1.74817890545990   12.93256701818270
H         3.79115674855457   -0.77251860328882   12.53309284744621
H         4.90073662532914   -0.23968527499945   13.79881245704325

