57
CSD_code = LIQNEG | q = 0 | S = 0 | Stoichiometry = C25H25ClN4OPd | MND = 4
Pd       10.22015402317282    1.99760445364206    2.00038924210023
Cl       12.43996195985711    1.10229199998688    1.92549139672396
N         9.55430046646514    0.18829954714389    2.64646033360423
C         8.35423590163567    2.63312477002215    2.30912543645722
N         8.08767036338786    3.67606203444578    2.96791790811291
C         7.27154412043497    1.78739504443622    1.80518349963714
C         7.27436340925486    0.38929019512750    1.96082324459517
C         6.23101288870592   -0.36132416715036    1.42409890087977
H         6.24449820931924   -1.43740189741012    1.51830272708875
C         5.20036450430526    0.24943141141795    0.73510402128112
H         4.40817406425708   -0.34951137038131    0.31203050705970
C         5.18877832216864    1.62843127484868    0.58941619259021
H         4.37917842682536    2.10915729237674    0.06085584919212
C         6.21052674345945    2.38724836055755    1.12375951226089
H         6.20971873110537    3.46149194279948    1.02120047321543
C         8.35588221495352   -0.29264739501402    2.68620775214077
N         8.08620000357699   -1.45902204905063    3.32350554655645
H         7.14268982992848   -1.70197291821607    3.56030422435747
H         8.83980792346829   -1.85584644868355    3.86241559094775
O        10.51008441267131   -0.53873797376075    3.37418776358763
H        11.37944318426524   -0.19453142382870    3.01345847176810
C        10.91656353208528    3.65791502000100    1.40545488246096
N        11.60800189648891    4.57864493132482    1.21404558655342
C        12.48176121394134    5.61203219670255    1.13362709758516
C        12.18952682579685    6.69897043422773    0.30323428903357
C        13.10103027045784    7.74094365137438    0.25491036567426
H        12.89842710171639    8.59187471928196   -0.37846105227451
C        14.26312569378809    7.69931508095550    1.00667874837893
H        14.96322566095900    8.51972874092152    0.95648275389931
C        14.53437428187760    6.61281980832498    1.82057412717929
H        15.44430122909480    6.58862131155341    2.40150759030823
C        13.65310840343719    5.54635915162942    1.90127223564246
C        10.92083265612106    6.71278839924660   -0.48883514579538
H        10.88697012689443    7.57594347418349   -1.14808885310017
H        10.06406292809588    6.74802999697922    0.18303915252504
H        10.83277076059301    5.80683377627093   -1.08809462050981
C        13.90883764870416    4.36181792903344    2.77155824276413
H        14.85168025020541    4.46385554894035    3.30122835200808
H        13.93584267989101    3.44575832955976    2.18102315587030
H        13.10093048585341    4.24745184015028    3.49564804305105
C         9.04764922757104    4.58360798611523    3.39335337269882
C         8.93605517855872    5.89317998014664    2.89663955421787
C         9.86241684549907    6.84606182071469    3.27781748049487
H         9.79322951589329    7.84732105970346    2.87664141469144
C        10.87071459506220    6.53139299489744    4.17390294046238
H        11.58809529962008    7.28302772637415    4.46728066221609
C        10.94788344913986    5.25552630620494    4.69772901895455
H        11.71653169845702    5.01900963669847    5.42053035592773
C        10.06042501604748    4.25788856402077    4.31003189317669
C         7.83131123852520    6.20926606813597    1.93388663147550
H         7.80545299120363    7.27209029594936    1.70513033647967
H         6.87535860639505    5.91170613362506    2.36207605355570
H         7.96307712569623    5.64827155255868    1.00762436350288
C        10.19623749413957    2.88055515637472    4.90908035567766
H         9.24607640286094    2.34096542240239    4.87493712639030
H        10.50992791809285    2.95899948678585    5.94929397285811
H        10.97379404798701    2.29799278536775    4.37820092178028

