88
CSD_code = LIQTEK | q = 1 | S = 0 | Stoichiometry = C43H39CoO2P3(1+) | MND = 5
Co        4.85010525879944   21.18052380401238   13.74435446437247
P         6.40596362300942   19.56034793620584   13.56111627295298
P         3.25572761928403   19.71494899072338   14.58038942733132
P         5.56071528485791   21.39143711706008   15.81189250977777
C         6.12723356642901   18.17969727859675   14.75140572858989
C         3.88358909001035   18.55349933291278   15.87789130797802
C         5.93931275361889   19.81102707715625   16.68781583896725
C         5.40824163695777   18.51068361090595   16.06905666881110
C         5.70853119509445   17.37349024675578   17.05957919883484
C         4.58305582232065   22.91950643272773   13.67744397404998
O         4.37493662943869   24.04072578040734   13.59004415255339
C         4.42860968708451   21.12177514141055   12.05003148686260
O         4.13476077809708   21.13662038543396   10.94800099703265
C         8.11580592164151   20.13837899426403   13.77921066067563
C         8.99166603501438   19.77823479259013   14.79394946452314
C        10.25971175569571   20.33406437047081   14.83987492281490
C        10.66520822057078   21.23639127103610   13.87273775781898
C         9.80052733073620   21.58820012099143   12.84687533513014
C         8.53042748389967   21.05079695968222   12.80771279228570
C         6.55533482706555   18.56621368639788   12.04128278691184
C         5.38433174310372   18.18171877462601   11.39459127634539
C         5.43690069094640   17.38507761165693   10.26685360191680
C         6.66267157344474   16.96892699217032    9.77256411585181
C         7.83090621945784   17.34452213511776   10.41524575733451
C         7.78377552866391   18.13769677655599   11.54806670530210
C         2.37363760234057   18.65947077125469   13.38308061025016
C         2.58569455350524   17.30124368886560   13.18056858405671
C         1.88241462087856   16.63055059888199   12.19372467858356
C         0.97496963226221   17.30696080034760   11.39746858210184
C         0.77239064184302   18.66645196616940   11.58197486964353
C         1.47207897908437   19.33912227539902   12.56337738428957
C         1.81299342471762   20.44779509064726   15.41651456984880
C         0.90103783884231   19.63117445275702   16.08078732596042
C        -0.19547867694312   20.19321387142102   16.70579997116251
C        -0.39495929968507   21.56503774136642   16.66507625535692
C         0.49773115307974   22.37658344125344   15.98631534580435
C         1.59819757714247   21.81827108877746   15.36125996330033
C         4.46564066940766   22.30770944455808   16.94316766093319
C         3.56838251051045   21.70435010112430   17.81663113470369
C         2.72808947720215   22.47762108552750   18.59758376062668
C         2.76887535087052   23.85809450971349   18.50998362324578
C         3.66251562945130   24.46802037798727   17.64368383920456
C         4.50444712406886   23.69955851730780   16.86362676626480
C         7.10388614952076   22.32318060157040   16.04971983127384
C         7.72212964214106   22.32394258528363   17.29836854524618
C         8.88133283188871   23.05012231692729   17.49204916487451
C         9.42407350698897   23.78786528485917   16.45112509773989
C         8.79957100434898   23.80744647788967   15.21606610510460
C         7.64128591115855   23.07816106917194   15.01559757342366
H         5.53741802872508   17.44091226518543   14.19736686718032
H         7.10414440966895   17.72525605905341   14.95058599367397
H         3.41676532454506   18.84969073965456   16.82166165223163
H         3.52559556024042   17.54737554359621   15.64302198944891
H         5.56861871240497   19.90419287602870   17.71382273914295
H         7.03141612835319   19.75530044630829   16.73316857826557
H         5.44045825323971   16.41013027932896   16.63101831660559
H         5.14466242451244   17.50261800609481   17.98115508092239
H         6.76630899408634   17.34778170206056   17.31280497759948
H         8.71002165419149   19.05684065853681   15.54745598263837
H        10.93512454016960   20.05348652004438   15.63397333645790
H        11.65590189154981   21.66154325062649   13.91446467125905
H        10.11782374775706   22.28267484893795   12.08401602205874
H         7.83905657505187   21.32386718573212   12.01787908607949
H         4.42728703504722   18.50716650480970   11.78003010057678
H         4.52142501079830   17.09528501489925    9.77358261799383
H         6.70769231927313   16.35339710581770    8.88751607284561
H         8.78638682679675   17.01827218998277   10.03350329084394
H         8.70066322735220   18.42446660369485   12.04194534728524
H         3.30123291431696   16.74910895756397   13.77351862486786
H         2.05022207732722   15.57414063706724   12.04692236725096
H         0.43002168658436   16.77810814205425   10.63105566174504
H         0.07167964557659   19.20012227010526   10.95843649344899
H         1.32560834652105   20.40260588240755   12.70868827401364
H         1.04528358069312   18.55946143281298   16.09782835709082
H        -0.90122333102881   19.55995263913486   17.22193693815205
H        -1.25256724253828   21.99838929297938   17.15616251467148
H         0.33911632650035   23.44329681899634   15.94298452184759
H         2.30132481451522   22.44683157846914   14.82877739303641
H         3.51285036767182   20.62941435921338   17.90006571464962
H         2.03690091712882   21.99688677203006   19.27324544395066
H         2.10985601272299   24.45781977038311   19.11827143645736
H         3.70432999332494   25.54440114569798   17.57684146489582
H         5.20857258052981   24.17865536644208   16.19646366755633
H         7.28921699674663   21.76880868351117   18.11908564649533
H         9.35999343359338   23.04746723599877   18.45955126397070
H        10.32911662738312   24.35406940662826   16.60765081768382
H         9.21221195551965   24.39181295384397   14.40801999911484
H         7.15179350329343   23.08683507533863   14.04928222795595

