56
CSD_code = LIQXEP | q = 1 | S = 0 | Stoichiometry = C27H24FeO3P(1+) | MND = 7
Fe        2.76715464577784   -1.26715487848077    6.14268406655301
P         3.93865054413695   -0.93958048283198    1.63442533739471
C         2.28630076306446   -1.45176223853735    7.84266024419353
O         2.04013772396220   -1.57773434764319    8.94682063031546
C         3.15295586619816   -1.82923228382506    3.01907042735231
H         2.25390667547250   -2.31235135206850    2.62082601925970
H         3.84492226764190   -2.61369802279771    3.34042055073907
C         5.55272853908072   -0.30665264266034    2.12153421221269
C         6.05420404543001   -0.42104908972982    3.41420891712154
H         5.46706714413191   -0.87733307919292    4.19799528529293
C         4.20121667423709   -2.06208345159757    0.24534866021254
C         2.81948935562453   -0.79925717842475    4.10958719006387
H         3.27265552303500    0.16296377456388    3.83521211799143
C         2.83371300872321    0.40168321101070    1.15715696533872
C         8.07617839527256    0.66291110206083    2.69679338011754
H         9.06051097398082    1.04158919035513    2.92373645769402
C         3.20750715784496    1.73419905419151    1.29337128263748
H         4.19293847431571    1.98673725320917    1.65957537768785
C         6.31729172020393    0.28369410250230    1.11394805592537
H         5.91723202043446    0.35269826546458    0.11019584014915
C         3.50581899126610    0.27444711301467    6.57544717736026
O         5.11727512017023   -3.00415265516058    6.17901603568679
C         1.56253089183529    0.06687617663414    0.69233687967881
H         1.28017234479237   -0.97304310110408    0.59274113037654
C         1.57116780527864   -2.88059181816101    5.44218596606668
H         2.02376732092461   -3.39870553033219    4.60792434714534
H         1.10012667487812   -3.58381783042383    6.11992312418502
C         7.57660141532722    0.77021758487934    1.40667321400416
H         8.16988767582516    1.22947338748283    0.63133884961289
C         4.19828800444973   -2.32673005155701    6.17010033246863
C         3.75735791743237   -1.76354283933695   -1.03887664582451
H         3.21957377665835   -0.84543934762212   -1.22979884837872
C         7.31863354930353    0.06881761415131    3.69359449779474
H         7.71155398658818   -0.01632956433566    4.69475997616750
C         2.30717456603329    2.73056826416120    0.95716123790301
H         2.59172918213973    3.76602281047502    1.06123809759223
C         1.04516348325215    2.40015582663898    0.48953868868040
H         0.34794667003075    3.18056698961146    0.22755865505386
C         4.01269061314611   -2.65144083452466   -2.06943412089090
H         3.66907111538113   -2.42511030257471   -3.06689963925362
C         0.67276596508690    1.07004253065906    0.35677967464384
H        -0.31099163037529    0.81670554488628   -0.00764438012265
O         4.04425349094304    1.24271869360676    6.85230312689701
C         4.91444001694690   -3.23441212393235    0.49203759515115
H         5.27781065072520   -3.44626413644183    1.48858020207330
C         4.70904707553805   -3.82390817454760   -1.82305121461069
H         4.90403739278484   -4.51231816497084   -2.63038340569005
C         0.72553554170778    0.69543498589025    4.33098781278949
H         1.41600541039671    1.53503746985387    4.37565015720041
H        -0.06137570518352    0.84826487706065    5.06538193837955
H         0.27003101211910    0.69320370634036    3.33832313392729
C         0.83040850712872   -1.68122971070165    5.20716869893055
H        -0.14982956619008   -1.54362914872511    5.65213163456384
C         5.16263808995378   -4.11383549193643   -0.54442692754320
H         5.71166365745932   -5.02354271646071   -0.35769219351739
C         1.43926746763627   -0.60679693796512    4.54935417326966

