66
CSD_code = LIRCIZ | q = 1 | S = 0 | Stoichiometry = C31H32OPRu(1+) | MND = 10
C         4.90729661750026   10.15094537419992    5.44539556724763
H         4.93911699563529    9.19594253273049    4.92818183708145
H         4.15062228075967   10.80822873511004    5.02340459899242
C         6.10725731248658   10.83289828544864    5.80803917473240
C         7.06130783436216   10.19497999360272    6.63722944598750
H         7.87430527571847   10.78514826855042    7.05433190263201
C         6.89169472860820    8.83633379769290    7.03811087765405
H         7.54278823573128    8.53764557108689    7.86298421354270
C         6.70606377940799    7.71792977790442    6.01822405490015
H         6.69911059419890    8.13975500124616    5.01130829467329
H         7.57526178803718    7.05880603418135    6.08010565276304
C         5.43118265055573    6.90154284760090    6.27330738298760
H         5.64640954621455    6.00571375762920    6.86100372151343
H         4.96286308417222    6.58579247441547    5.33736677160713
C         4.72402541378455    9.98334434382089    9.78393515295757
H         4.78334354421213    9.16616842132020   10.49035624802724
C         5.70859791159282   10.96625950785239    9.55960744745822
H         6.68257600757191   11.00429036573813   10.02740442839300
C         5.14247349611944   11.97797487627203    8.73574810165459
H         5.60537429183398   12.92039377654068    8.48755874379713
C         3.79884074907851   11.63962509281087    8.46640974635629
H         3.08766108429457   12.26117886618769    7.94430300933012
C         3.53218973536235   10.39582891896531    9.08697524516331
H         2.55813704438599    9.93333448040492    9.19838283417942
C         3.96703878798465    6.98703510732924    8.76040797225992
C         5.07279636052827    6.51445296500577    9.46558495106229
H         6.06878582895589    6.69124580120211    9.08232546921003
C         4.89650618816362    5.82838357553980   10.65222546555797
H         5.75420205623041    5.45614489127401   11.19171211429916
C         3.61905419440217    5.62068277822276   11.15052352624016
H         3.48290579658162    5.08383995850703   12.07639786218402
C         2.51871755544007    6.10579025721567   10.46290649565513
H         1.52489101365797    5.94896826191759   10.85333329796656
C         2.68786317029521    6.79299352461043    9.27353815045233
H         1.82798106789710    7.16815292162996    8.73623739645861
C         2.65875855334709    7.77906227317265    6.36564143826708
C         1.87738389505314    8.89752183771545    6.10240237759590
H         2.23144419780827    9.87466710403084    6.40524876706909
C         0.66220315917309    8.75202699718566    5.45606719425062
H         0.05452249193992    9.61968898885060    5.24919400470524
C         0.22620145284114    7.49321922874640    5.07595424256784
H        -0.72062450273404    7.38083302022820    4.57090250758996
C         1.00065830250952    6.37461092752269    5.34651494883307
H         0.65498093076605    5.39452511933513    5.05562037091550
C         2.21457189005745    6.51173859311712    5.99268967653924
H         2.81553303584230    5.64179521925426    6.22046891958199
C         6.22236368259616   12.29754054535638    5.39564241224593
C         7.47019870816455   13.02733899506869    5.91174298810514
H         7.46455135986176   14.04483450635037    5.52295833306167
H         8.37963436616729   12.54523111707683    5.56612883597063
H         7.47586035244798   13.07763447350987    6.99908440968993
C         6.26784773000886   12.28474315181767    3.86583624931112
C         7.26234952247628   11.55213876349127    3.22652286668847
H         7.97493243543999   10.98711108989269    3.81077696237210
C         7.34438246235589   11.53946868885033    1.84682706191214
H         8.12309682984859   10.97111052821313    1.36194928063760
C         6.43112750399986   12.25413114560049    1.08911007473406
H         6.49780880675369   12.24782238474902    0.01236703799078
C         5.43050145830256   12.97081697729931    1.71927395835039
H         4.70980636041006   13.52454141249421    1.13709773951726
C         5.34606578078500   12.98380897299629    3.10175624025923
H         4.54791549875652   13.53621390404859    3.57610555520139
O         5.05465583212827   12.92153731284936    5.90288819543249
H         5.07240712008209   13.85412056467328    5.65679005477417
P         4.23696378346023    7.94253720632023    7.23938057131499
Ru        5.13865497757788   10.01927780643166    7.60948956953805

