70
CSD_code = LIRCEU | q = 0 | S = 0 | Stoichiometry = C25H39N5Ti | MND = 5
Ti        1.45842754173059    5.41728397827653   10.83088095863765
N         2.54950521049519    5.65607167893842    9.30831370270721
N         2.42422681123681    3.95538876207937   11.46878664942584
N        -0.09672569696112    5.20418857931119    9.79786399169834
N         1.82994917258214    7.25550525815538   11.58572032897905
N         0.21828908920274    5.24744199996360   12.58130877502211
C         2.12520118747332    6.34359061787318    8.11554441338405
H         1.13424155792461    6.77950864152903    8.25773623061962
H         2.09149948995475    5.66124300131183    7.24635862300611
H         2.82737314119496    7.15660262355591    7.85381890189000
C         3.89842469619289    5.18473582217089    9.12458586360371
H         4.28218222476191    4.75440941774060   10.04923365523226
H         4.57057977302685    6.00828715509846    8.82275739814096
H         3.95132723134652    4.41852805382176    8.32857567245405
C         2.57760000553469    2.65680330020729   10.87273163491685
H         2.08970851449307    2.64200347628241    9.89431615853695
H         2.13043563209168    1.86534715489076   11.50266464043200
H         3.64357372480373    2.39457696488559   10.73472393243459
C         3.15381146080173    4.04908445951965   12.70447140190315
H         2.94810752660383    5.00943210357592   13.19194156400452
H         4.24691359286405    3.95981142321383   12.54332962118961
H         2.87010846392428    3.24029609111457   13.40407262414316
C        -0.32983494984303    4.26776436023285    8.72979843788711
H         0.53295320000458    3.60396606766170    8.62464934854289
H        -0.49290530693069    4.78355569290885    7.76423623941363
H        -1.23226165391607    3.65088120252791    8.90795092484297
C        -1.17442616892801    6.15305839689996    9.89063791644773
H        -0.93306875472183    6.94563784531050   10.60656527367227
H        -2.11875180545226    5.67196001940754   10.21503909516614
H        -1.38267001244219    6.62570525781215    8.91030289035183
C         1.36602059039586    9.50619879320022   12.48674430255594
H         2.44297622242279    9.66221400273748   12.52427371648771
H         0.92129031743031    9.88064739161962   13.40538101922698
H         0.96897812393465   10.09000569551173   11.65710860342612
C         1.04137398716566    8.03650996657964   12.30775233781516
C        -0.07959621591336    7.56822140652028   12.98468124842644
H        -0.68347510600949    8.29985488229379   13.50236740369547
C        -0.44005976575731    6.22259394493489   13.15169114251034
C        -1.63498173166524    5.96377052759628   14.04618729826124
H        -2.04449419431715    4.97112752243425   13.87183758352176
H        -2.40608621637174    6.70740133460863   13.85484518661115
H        -1.35070285031240    6.04010604965774   15.09508129110193
C         0.01937353019619    3.93228194868308   13.00513773789292
C        -0.40430458567356    2.93846434234313   12.12197371518225
H        -0.61091722032250    3.21035939911907   11.09672848706999
C        -0.54827039077827    1.63195385097260   12.55029521374403
H        -0.88076385002902    0.87820854498162   11.84920415270647
C        -0.27875806971982    1.26694753131426   13.86392875384281
C         0.14478758460233    2.25606878554202   14.74379333335775
H         0.36529480972971    1.99499660211753   15.76999923310479
C         0.28636683005534    3.56528987867234   14.32931360790841
H         0.63029412460523    4.31871279587597   15.02560713219536
C        -0.41878115792273   -0.15351919963262   14.32474469128660
H        -0.96559580005193   -0.74620658523233   13.59541294136236
H        -0.94312385763700   -0.19945919982150   15.27790775011081
H         0.56414478451946   -0.60512645459714   14.46402136442994
C         2.95775581785410    7.80983678921016   10.95876386068067
C         4.24012335712768    7.44053959976478   11.37752679547937
H         4.34400411907934    6.70996450057666   12.17057997796901
C         5.35864074653812    8.00002068853083   10.79289026498811
H         6.34219406114391    7.70020133214108   11.12769954489760
C         5.24664389917435    8.95274200387103    9.78445180504024
C         3.97377052929364    9.32535078683617    9.37419433370949
H         3.86092054221947   10.06296501044834    8.59114690210860
C         2.84568905751657    8.77490371513879    9.95305698512752
H         1.86201907805686    9.07228477622901    9.61239139410097
C         6.47456896217300    9.55375585423083    9.16818916099513
H         6.21332788118053   10.21282332642600    8.34394611912443
H         7.13549629955801    8.77300794991728    8.79369873111045
H         7.02896085750594   10.13051050240128    9.90862800815868

