37
CSD_code = LIRDEX | q = 0 | S = 0 | Stoichiometry = C13H13BrN3O5ReS | MND = 6
Re        4.82290987854453    0.54927660796641    3.94872595497302
Br        3.70893684068994    0.38792406276592    6.22555749311969
S         5.98096922726606   -1.67872592481725    4.52943222401130
O         5.35822260666700    4.55943087968602    6.63169244857209
H         4.70037808927378    5.24110501130506    6.81441815311592
N         7.27234483157227   -2.01523421575689    6.78648441183444
H         7.57535717486505   -1.66857633131310    7.68454202579251
C         6.77532749846793   -1.13799224562018    5.89486574824744
O         5.20364767143675    6.51364267961244    2.26218486740602
H         4.61508060161492    7.13778411623827    2.70477593052031
N         7.02715522475980    0.17192884906525    6.13772876344293
H         7.44742062827991    0.42324581668005    7.02791575704639
C         6.85551863373331    2.39650591758621    5.68958347063229
N         6.58299113264472    1.18741372358837    5.34122700400021
C         6.43660293525940    3.48887072428117    4.80945293277937
C         5.68045986615062    4.55690497423559    5.31614843049664
C         5.25683569043866    5.56394059792211    4.46163872892399
H         4.63972686433670    6.36498268131213    4.85146004857119
C         5.59558787494697    5.54369316850966    3.11402164372816
C         6.37858847444110    4.50329919148032    2.61563384786727
H         6.64440091570200    4.50440269854455    1.57234089081970
C         6.77264988760566    3.48666058125645    3.45411243973240
H         7.38266382052086    2.68350746987299    3.07103469947771
O         3.44322333974410    3.28370444784009    3.52636875363174
C         3.99158275012649    2.28138071368165    3.66376793460833
O         2.44632202327880   -0.92583366267435    2.64948685746463
C         3.32853210472867   -0.33725078555657    3.07885147675237
O         6.49036329880298    0.60928496298500    1.35780713020965
C         5.86711351114966    0.60315821008210    2.32060744602803
C         7.57765866857757    2.74854733846707    6.95722609211907
H         6.98988032924429    2.44617417552562    7.82628169152721
H         7.72199720028706    3.82209348443535    7.01075440345010
H         8.55837132225758    2.26912121313191    6.99614789485288
C         6.96420701560973   -3.42400945057109    6.70291459891819
H         5.89118980782186   -3.60069628414227    6.81677294849302
H         7.50575543114509   -3.95016633865074    7.48349782299226
H         7.27132682800776   -3.80449905895332    5.72853703384132

