46
CSD_code = LIRDIZ | q = 0 | S = 0 | Stoichiometry = C19H21Cl3N2Ti | MND = 8
Ti        5.46060431418564    6.85935316652974    4.66678644315568
Cl        6.04749151157592    8.39555115384253    3.28907427699645
Cl        6.37722672942672    7.49074294912198    6.59064103377743
Cl        7.10383886011062    5.37387232513113    4.48878438854731
N         4.31771820309608    5.56703529452431    3.77187212110525
N         3.74311225031328    7.36993205744013    5.43415963779436
C         3.80374436961860    3.20778480941963    4.32639262894209
H         4.27951235065229    2.99175812038910    3.37240913410083
H         2.75391334022079    2.92145571249443    4.27264594596945
H         4.27538026326919    2.61112656958956    5.10455484513371
C         3.94619638194470    4.66540087249520    4.67031340045373
C         3.64729349162676    5.08219153921257    5.97671663210021
H         3.40495838735143    4.32855429209588    6.71285053421492
C         3.36282911688317    6.42531519317514    6.27839999655437
C         2.60442825419323    6.73823458756379    7.53867712870903
H         2.66386624644625    7.80003966998332    7.76727487547584
H         3.03031506726484    6.16954727599181    8.36272842593552
H         1.55677574709323    6.45531357570281    7.43966733877557
C         4.24369841312236    5.33947230878397    2.39361090394239
C         5.33028052555932    5.61602035991512    1.56259003527251
H         6.26801137886392    5.94695920410282    1.99429180497783
C         5.21944444009934    5.43459552009387    0.19660576277714
H         6.07244229151309    5.64335399762820   -0.43223241013859
C         4.03663931742381    4.98900452235198   -0.38110451364788
C         2.95323539041034    4.72809918170810    0.45157905542018
H         2.02151620856993    4.38916893214197    0.02173940997669
C         3.04928698032614    4.89737668726226    1.81747426020505
H         2.19403312959744    4.71080973689080    2.45206966964677
C         3.91434615061353    4.80021438060139   -1.86165550089581
H         4.87248758345705    4.94593456126582   -2.35279400129214
H         3.20188569086045    5.51353329834588   -2.27508982858279
H         3.55177618341357    3.79916814466532   -2.09022008105640
C         3.20290966487612    8.66199968254121    5.44973944962658
C         1.82394654768142    8.84638393869641    5.33946291611818
H         1.17922531668043    7.98117969469108    5.26868299817066
C         1.29041119258444   10.12025864642516    5.29241503318028
H         0.22068259130238   10.24291149104035    5.20147946705369
C         2.10848384555218   11.24023547438177    5.35780530818147
C         3.48331511576010   11.04940936802594    5.46806007646169
H         4.13308011954627   11.91053599361022    5.52263997609994
C         4.03295512961267    9.78374025516738    5.50930207727252
H         5.10413036979826    9.65430184428074    5.61429854859447
C         1.53956784846072   12.62478193238966    5.31553340805149
H         0.46266541682842   12.60097344616176    5.17095744596681
H         1.98903279663505   13.19489909221167    4.50411081736372
H         1.75360547557854   13.14896913991934    6.24629912351321

