22
CSD_code = LIRFAU | q = 0 | S = 0 | Stoichiometry = C9H7BrFeO4 | MND = 8
Fe        0.70281957643770    2.93024619621188    2.04902390544669
Br        2.04739596021367    4.70345594926340    1.65963094435712
O         1.65111967370826    2.22885338584257    4.68531267658432
O        -1.36062584435717    4.29741242228647    3.53619782706712
O         3.08593013220847   -0.52836424965165    1.38266885315440
O         1.47884765729392   -0.66330441900047    2.95393747235466
C         1.30594357633854    2.51605327129161    3.63863865383738
C        -0.55098578301592    3.78256621216479    2.92032916772318
C        -0.25377257965155    1.04082364002505    1.50240298022978
H        -0.84065994802629    0.43458641802230    2.17222295506125
C        -0.76450105998044    1.95430555124587    0.54137047239598
H        -1.79838977076776    2.23487124515543    0.42919617500699
C         0.29771100192520    2.36337149459883   -0.27776630285917
H         0.23381174079519    3.03349263749926   -1.11888380824405
C         1.46623319351132    1.64998777271662    0.11410240628162
H         2.42982035570827    1.69210622342510   -0.36579223599111
C         1.12562118930238    0.80307426483211    1.18494204898930
C         2.01790878641176   -0.18370871314920    1.81966295423818
C         2.25998617800116   -1.62041540300238    3.65642550975402
H         1.62824254237020   -2.00086832318611    4.45448324445597
H         3.15243670784214   -1.14621630075781    4.06952431732400
H         2.56650671373150   -2.42592927583354    2.98666978283210

