28
CSD_code = LIRFOI | q = 0 | S = 0 | Stoichiometry = C11H10FeO6 | MND = 8
Fe        2.77658195346323    9.53987661708537    5.63500579088961
O         2.35497707632034   11.52913948361195    7.68995971758348
O         5.30107839366745   10.86698728539990    5.16581578369007
O         4.62764578498273    8.45573033969508    2.44327916187444
O         4.12828863038336    6.40728566827847    3.22568088635387
O         4.68538508613722    8.72844460197910    7.53909111462969
O         2.67436653425391    7.71450858336416    7.47577794308864
C         2.45312872385513   10.74363043214115    6.86164312387870
C         4.31614636166485   10.31933062776417    5.34716860873579
C         2.22672818379362    9.56663790097015    3.44850635601509
H         2.66748773164356   10.23943700654315    2.73229323704369
C         2.71008453813715    8.24686136522190    3.74971595347586
C         1.71804216807000    7.59359760615715    4.53955658584956
H         1.76168947497110    6.56639120436420    4.85600737929435
C         0.71183561844564    8.51637803885605    4.81633821823839
H        -0.19885401186359    8.31583756530484    5.35394503166830
C         1.02056885627067    9.73879042548094    4.13758837010160
H         0.35662003038677   10.58302722005499    4.04852757643453
C         3.86882376534063    7.58244577702727    3.13628628197464
C         5.78084373332329    7.91155482988629    1.82161129640807
H         6.42893052210759    7.44614359020676    2.56730496648679
H         6.28813331757031    8.74402102328279    1.34108325016558
H         5.49670711175462    7.15736480200749    1.08459697593465
C         3.46010820246966    8.54002619275587    7.08066119521107
C         5.12750221946508    7.85040660499171    8.58611623661899
H         4.38343641941156    7.81911522913424    9.38333952534477
H         6.06736440224071    8.25773673221665    8.94807348691759
H         5.27244917173379    6.84469324621983    8.18902594609484

