90
CSD_code = LIRGOI | q = 0 | S = 0 | Stoichiometry = C26H54B2ClN2ScSi4 | MND = 13
Sc       -0.58461771125807   -2.15432327490225    5.04139126932711
Cl       -0.58443134511355    0.15555954433195    5.04162148938944
Si       -4.16531609211187   -2.55281767822564    7.23963786274875
Si       -2.99514087804584   -5.19390544631505    8.30235603432810
N        -2.83519321874599   -3.66122902715194    7.45568290832268
C        -0.39413385245586   -4.13404114265194    6.57893448296805
C         0.96621714412718   -3.80672959066430    6.63979312957694
C         1.38031405656319   -2.57718391693328    7.17049467422861
C         0.47232199628533   -1.61401996019836    7.63834377218499
C        -0.90242618866701   -1.85609895190383    7.61665813433202
C         2.00985831449647   -4.79967993530466    6.19456775692689
C         1.00201837051793   -0.32991750848319    8.22153851263765
C        -4.65410282970300   -1.60928265570946    8.82943464681560
C        -5.69177901975263   -3.46840821061997    6.54707451063839
C        -3.65546656442427   -1.27019500737168    5.92037063728110
C        -3.44532646954040   -6.61480669278073    7.10067841839990
C        -4.34864595639953   -5.08708640987301    9.64014168172549
C        -1.37586804175098   -5.62215015910454    9.21672166264228
B        -1.44725094316266   -3.21375910795431    7.18727280275852
H        -0.62074780254818   -5.15418482293250    6.27885509576412
H         2.44172419341781   -2.38614803688847    7.27712716223211
H        -1.51663455126093   -1.10023117558567    8.10269002338559
H         1.69855700558452   -5.81490501557769    6.43400316252849
H         2.96202532487870   -4.60709836218610    6.68496494562512
H         2.15603067782344   -4.73271834211814    5.11569654159122
H         0.75858792936632    0.50133516507796    7.55927468681831
H         2.08192357210470   -0.36688438437778    8.34663170556823
H         0.54313433708314   -0.13252499185195    9.18902768675311
H        -3.78121486151966   -1.27566241585803    9.38218305780426
H        -5.24047750363657   -2.23373004802020    9.49451929778778
H        -5.25128012618444   -0.73265501370796    8.59522307485780
H        -5.57450077350055   -3.73735991047647    5.50242070281961
H        -6.56728964623840   -2.83143826523646    6.62195666578144
H        -5.90340470069262   -4.37733918667930    7.09725699670238
H        -2.86716413004182   -1.68962954546283    5.26614006124457
H        -3.26793207936179   -0.35791450583427    6.36563109947846
H        -4.49113360076578   -0.98664300538655    5.28761902018836
H        -4.36973317747170   -6.41861237479181    6.56684433680389
H        -3.57960108729337   -7.54022776553611    7.65234826010058
H        -2.66949098903614   -6.78852921077777    6.36183300112569
H        -4.09346537860605   -4.35913251152440   10.40232034383893
H        -4.45960860918523   -6.04868935165952   10.13049863753496
H        -5.31576908939676   -4.81522828864426    9.23507391668346
H        -0.66311122729704   -6.12681381975678    8.57525748624325
H        -1.57007383270874   -6.27343204420783   10.06324996025679
H        -0.89342668272864   -4.72439505576813    9.58832322317350
C        -0.77466594727883   -4.13395987005314    3.50396376901708
C        -2.13498957594606   -3.80654571803586    3.44299310685374
C        -2.54894234325018   -2.57694313421595    2.91233640351250
C        -3.17873114917331   -4.79947819497429    3.88804267277216
H        -2.86752632202531   -5.81469142515057    3.64840166612720
H        -4.13089580866478   -4.60672090465267    3.39769394224369
H        -3.32489116667287   -4.73272840481139    4.96693563933513
C        -1.64084386587215   -1.61379569718879    2.44465422153558
C        -0.26611892880846   -1.85598869697573    2.46639744141367
C        -2.17040942439069   -0.32956617577248    1.86161104390198
H        -1.92716442666025    0.50150573377192    2.52416572663951
H        -3.25027703379826   -0.36651636764119    1.73623254653001
H        -1.71127050678793   -0.13190860894505    0.89430256881617
B         0.27857326306208   -3.21373810804299    2.89576461155989
N         1.66651387645532   -3.66125846116425    2.62743379057921
Si        2.99671784136044   -2.55288510694047    2.84339277792742
C         3.48549805475496   -1.60975921447552    1.25347652840028
H         2.61258457274680   -1.27935540546139    0.69875169814272
H         4.07494178039431   -2.23324317898722    0.59019469230006
H         4.07970324793260   -0.73104483081481    1.48768142737736
C         4.52313878772791   -3.46839950316990    3.53618964428711
H         4.40582087733765   -3.73726071293943    4.58085930361387
H         5.39862072030035   -2.83138447766075    3.46129704603116
H         4.73483419625958   -4.37736755307541    2.98609797289432
C         2.48687005540967   -1.27016900030153    4.16261153226172
H         1.69862825810266   -1.68958628672768    4.81690662600533
H         2.09927906330078   -0.35791094715887    3.71735188996294
H         3.32255066047675   -0.98658165669499    4.79532956101150
Si        1.82654013839089   -5.19392821929566    1.78073452078806
C         2.27674562803634   -6.61487011143424    2.98236208405349
H         3.20106700613310   -6.41861198885743    3.51632293639299
H         2.41119376579867   -7.54023310786311    2.43063498996270
H         1.50083909161378   -6.78874308553661    3.72109951187672
C         3.18013111682390   -5.08688753355085    0.44305384924172
H         2.92525674579415   -4.35843851503389   -0.31875335247834
H         3.29082052998645   -6.04827481588638   -0.04779317195958
H         4.14731716946817   -4.81554894859564    0.84832850173047
C         0.20734093052363   -5.62226995742889    0.86627624754205
H        -0.50546055906556   -6.12689309785116    1.50772651461583
H         0.40163977846101   -6.27363196385996    0.01982680442096
H        -0.27508870055779   -4.72456201382492    0.49454101729880
H        -0.54813826934651   -5.15410345187511    3.80406843547225
H         0.34821572194987   -1.10014760316431    1.98044477557234
H        -3.61032281207633   -2.38580626016979    2.80557194442205

