75
CSD_code = LIRLAZ | q = 0 | S = 0 | Stoichiometry = C34H38OPRh | MND = 7
Rh       -9.69181547910854   -3.43873166534199   -1.25947504500853
P       -11.06717557246724   -4.99722522847017   -0.40182783131177
O       -11.30035811774834   -2.72145148089987   -3.67841979787825
C       -12.88536188228975   -5.04798473686872   -0.42269340020444
C       -13.47041201634455   -5.24648275592363   -1.67183194784288
H       -12.82816656417016   -5.36337148317539   -2.53559090408026
C       -14.84408394326515   -5.28955409776874   -1.80136256817059
H       -15.29144530806184   -5.44640617527917   -2.77163804640526
C       -15.64837495397625   -5.12595088652694   -0.68341855477399
H       -16.72332766011127   -5.15720364992899   -0.78173120062109
C       -15.07320652405608   -4.91598081305872    0.55780153090480
H       -15.69985332376859   -4.78298044099449    1.42791185178561
C       -13.69550240756478   -4.87319313699762    0.69187467473434
H       -13.25937538178935   -4.70420530723252    1.66531068795813
C       -10.69518962884055   -6.70233524944776   -0.93232566011838
C        -9.78165256401789   -6.88680212356220   -1.96248322336539
H        -9.33429659448458   -6.01326344927862   -2.43036772112470
C        -9.45195286003457   -8.16447927775690   -2.37777572274630
H        -8.73683518583816   -8.30536300251652   -3.17473579672007
C       -10.04127780872804   -9.26036174130733   -1.76937227894977
H        -9.78531286972177  -10.25936806013038   -2.09060994408748
C       -10.96570718598663   -9.07926306598296   -0.75165261460507
H       -11.42986068443778   -9.93646514728370   -0.28564747313194
C       -11.29594447260168   -7.80396093459671   -0.33290736741628
H       -12.02537067544107   -7.65878277377903    0.45286564193848
C       -10.59887810715085   -5.03103133728451    1.39367267362805
H       -11.00981449203584   -4.11944769444516    1.84079640174686
H       -11.00767691581113   -5.90023268989767    1.91732823116334
C        -9.06567996278870   -4.98835843144496    1.45710018402727
H        -8.74214476492348   -4.70527052077921    2.46434327122658
H        -8.67042283686665   -5.98492751824679    1.24391096508687
C        -8.51856290326072   -4.02026028800479    0.43449771865854
C        -8.59086292852300   -2.59577013815132    0.51443367836525
H        -9.07666462898844   -2.06831481903392    1.32125155440444
C        -7.95521138587513   -2.03368726558275   -0.60998251111120
C        -7.25860946102379   -3.12845579945528   -1.28604950995089
C        -6.34966979568125   -3.14578069872361   -2.35034849342496
H        -6.12479942056730   -2.24203469564407   -2.89957919272727
C        -5.73230070281212   -4.33223075226081   -2.68289791839826
H        -5.01664007562180   -4.35062510399217   -3.49215927857273
C        -6.00546596569912   -5.51396697258855   -1.99086871524857
H        -5.49414733444082   -6.42244666648230   -2.27422776379490
C        -6.91434036156297   -5.53742869250897   -0.95452965945653
H        -7.12165357540473   -6.45912264814385   -0.42699900189453
C        -7.54356812628596   -4.34745224696222   -0.58405072731357
C        -7.67798713350403   -0.58963757820974   -0.95097930444186
H        -6.74178482765170   -0.58936084794343   -1.52100255756256
C        -7.45990610289894    0.35714937704375    0.25139170489790
H        -7.02731490040445    1.27416741230544   -0.17090438330668
C        -8.77704933005088    0.75651090067982    0.92814836871266
H        -9.18961282086510   -0.08700349268268    1.48026149520506
H        -8.58150414813721    1.55117285229031    1.65013633067316
C        -9.81960240271753    1.26009911401687   -0.06567809609892
H        -9.47295426863448    2.19653748485063   -0.51179883313634
H       -10.75106297488646    1.47204213337282    0.46512184746778
C       -10.06712735483292    0.24696517822458   -1.17875322254641
H       -10.41946084001843   -0.70287043485010   -0.74248319211999
C        -8.74516828142329   -0.00655725508856   -1.89426680120562
H        -8.37655989335315    0.93778879814309   -2.30457232820880
H        -8.89715894405312   -0.70035088978728   -2.72652777732254
C        -6.44176461152403   -0.20253186435134    1.26731963063584
H        -6.88899707665681   -1.06185002533782    1.77710720296181
C        -5.15748357980962   -0.67664977303403    0.58447942170665
H        -5.33395378578769   -1.55283407615322   -0.03285219377933
H        -4.41663549763022   -0.94515297356585    1.33499576687140
H        -4.73967111048441    0.11429590297176   -0.03551961291954
C        -6.07786665230642    0.84446363968786    2.32223175438934
H        -6.93109008021769    1.10609493908823    2.94157569451505
H        -5.70359084693906    1.74887488054909    1.84660404759174
H        -5.29957436975517    0.45808821524525    2.97708522618842
C       -11.12985352566512    0.74708185581575   -2.15163900636760
H       -12.06779907493486    0.93092688214595   -1.63194910577492
H       -11.31004373935838    0.01059791453213   -2.93055873195774
H       -10.81064227173743    1.67550852270517   -2.62217706894994
C       -10.63470614357996   -2.93305512891379   -2.75853547129375

