75
CSD_code = LIRLAB | q = 1 | S = 0 | Stoichiometry = C40H28IrN4O2(1+) | MND = 6
Ir        2.39848835516576    6.13090399325613    5.59237861785029
O         3.55839262217653    4.49698949242090    8.27853469159484
O         2.23359084066640    9.35537714668969    6.48193519555393
C         2.62957629686509   10.08169190234755    7.54324007229469
N         4.11907778283615    6.80156263746618    4.76007905135843
N         2.43648098702171    8.04624509164786    6.73410547480481
N         3.21825784646985    5.61141328311218    7.59950984833439
C         2.86578125309071   12.30509554511396    8.59431191309196
H         3.23882876013785   11.83836989232323    9.49223858933589
C         3.10270007667709    9.22399134859077    8.51568873318620
H         3.49733871083441    9.46385719911425    9.47882100731090
C         3.35323646181454    2.41711453572611    3.54848841854048
H         4.11934949498585    2.01343704789245    2.90340337121476
C         3.69848725112155    6.18371484162499    9.70828208201943
H         3.84440244425556    6.77213197790289   10.58769423829777
C        -1.37607076708880    5.55306053846873    7.55823210557658
H        -2.04747143853080    6.15896417848464    8.14427954901683
C         4.59842513574332    4.08084892218006   11.78691574864327
H         4.56707640226758    5.10196712351589   12.13280967709657
C         3.85148419597895    4.82093601069530    9.55127608278752
N         0.64465383061866    5.40717420619738    6.29878310709948
C         1.32914094867916    2.12481154435186    4.79186635058336
H         0.52070920910658    1.48854781322270    5.11784220348294
C         4.25218811764509    3.77687873734891   10.46844417824089
C         6.47003193349258    7.20679977548000    4.74192942032387
H         7.42664313993029    7.06548630406930    5.21761956882863
C         2.26102176522681    8.18132025506910    1.90415111090699
H         2.99613395808379    8.70833232840335    1.31547859893585
C         4.29862201933052    2.45038128335344   10.03148750613235
H         4.03050122347362    2.21828559142341    9.01191463967038
C         4.98419676016112    3.07260048755788   12.64796101012888
H         5.25224349283064    3.31109210396046   13.66559421175174
C         1.89956265349611   13.51242469648470    6.28760023804748
H         1.52397493518536   13.98390726092381    5.39263861636421
C         1.66748853112917    6.84813082577921    3.85682198308117
C         2.62875733346725    7.53175226973135    3.08317517084892
C         2.74052139686146   13.67886553017695    8.53199954793487
H         3.01878835780827   14.28089593162342    9.38309090604021
C         0.38879031862177    4.10411698875447    6.03199622780927
C         5.10281546721836    8.06238028186537    2.98710001232972
H         4.98531998358333    8.60824407327239    2.06594262343493
C         6.35102030096070    7.92784291112248    3.56004022991070
H         7.21962454504666    8.36816321189352    3.09589370816364
C         2.50564550812482   11.52190031601181    7.49543654501590
C         2.31279408670956    1.60663631297493    3.97490972126989
H         2.26944785662045    0.57373449983672    3.66548446895204
C        -0.00267302646827    7.47581027420263    2.22981963178047
H        -1.02906357450037    7.44736950614239    1.89557698273356
C        -1.64540879796023    4.21293252197143    7.30834118700937
H        -2.53551874238189    3.74895417502724    7.70357038287592
C         5.02894091699325    1.75801310015651   12.20881388543348
H         5.33213920834547    0.97445815337233   12.88577566777071
C         0.94777383068288    8.15335395608275    1.48225173456000
H         0.66265375124690    8.65426850341608    0.56994189559036
C         2.25863748973478   14.28488050246390    7.38154784842238
H         2.16275512435416   15.35871527228151    7.33858610838142
C         2.44476494302302    4.29205360022328    4.76892399013215
C         3.98829711774311    7.48554610674618    3.59838208666704
C         3.41638987204697    3.74489022828745    3.94309991914822
H         4.23718571720565    4.35215554389709    3.58814683542426
C         2.96011912877831    7.94604842915272    7.94463377476014
C        -0.75743802070442    3.48941611482089    6.53860754449600
H        -0.94773662199479    2.45133431405899    6.32295392531619
C         0.35581130146950    6.83179249200655    3.40429552742112
H        -0.40786282277573    6.30714467346190    3.96105253900856
C         2.02010349937421   12.13789249455211    6.33893284595027
H         1.74243830963732   11.53010014011918    5.49110420548861
C        -0.22304945280795    6.10172582349635    7.03344088991320
H         0.00818298855422    7.14530811045126    7.19975982051872
C         5.32941711227852    6.66528102068511    5.30007027762775
H         5.39169388005798    6.08780351337059    6.21264950342523
C         4.68555746087120    1.45024533427293   10.90126455748381
H         4.72065525385294    0.42742294902000   10.55944695246624
C         1.38542685066047    3.46108462869566    5.18981570466721
C         3.29163691678002    6.63172026809168    8.43816740233016

