34
CSD_code = LIRQOS | q = 0 | S = 0 | Stoichiometry = C15H11N2O5Re | MND = 6
Re        2.99756926414519    2.12804960604564   15.49801203346899
O         5.18697255158869    4.03394802143339   16.57598020996819
O         5.10339939467431    0.24127720033747   14.23604035978813
O         2.35185727499345    3.74507173580446   12.91749904611431
O         2.15450349800440    0.61610677809515   17.95835129882125
O         4.37153350783051    0.70158905012521   17.77231686678721
N         1.42392107917895    3.01670454591404   16.61948759912650
N         1.37276317335847    0.78208116971354   15.22831322815630
C         1.47963350715270    4.18845187867911   17.25534543711945
H         2.32460732180520    4.82220649025148   17.01587111367409
C         0.53262007015280    4.60206773375426   18.16790368446632
H         0.63132504506530    5.55930104365546   18.65344433591943
C        -0.53244925555756    3.75448122703270   18.45122574524392
H        -1.28516445441599    4.03445336927255   19.17213016411423
C        -0.61085150574388    2.54912339128404   17.78859886238198
H        -1.42821339631846    1.87775280176446   17.99141218850721
C         0.38201279480217    2.19550109748952   16.87069741715824
C         0.35120420577951    0.95529734253083   16.09385076698196
C        -0.67920320333761    0.01606689383834   16.19167294146569
H        -1.48233131032169    0.16072412233323   16.89457739293874
C        -0.65805705498026   -1.10849624847234   15.39602652841556
H        -1.44104356251205   -1.84759499108279   15.46947678378526
C         0.38891995742149   -1.26719144223032   14.49509093985603
H         0.44385644269465   -2.12582960493221   13.84584301003197
C         1.37423386917358   -0.30376534121052   14.45296685424016
H         2.20568038736939   -0.39878486829062   13.76545142709440
C         4.39543130912746    3.33278658772186   16.12778151614742
C         4.34361471493995    0.98220217209826   14.67512643107296
C         2.60795418387538    3.15154737399986   13.86237950021397
C         3.13854323636494    0.98797792444623   17.33414869700739
C         4.47759310031936   -0.04628778788893   18.98194223615675
H         5.54055526451332   -0.15573916849595   19.17940016771957
H         4.00609855830035   -1.02475919798955   18.86487150320117
H         3.98721003055775    0.48567909297347   19.80046371285439

