47
CSD_code = LIRVOA | q = 0 | S = 0 | Stoichiometry = C19H22BrCl2IrN2 | MND = 8
Ir        3.13858752762694    5.74477503488230   10.11113787707079
Br       -0.44190923685951   13.58149007632409    5.26179722542363
Cl        2.87186481193872    4.93772134504003    7.92770238823787
Cl        4.40156559326937    7.58739735076471    9.28336962564248
N         1.57301301922887    7.98640846581844    8.89391223852999
H         2.52755414410279    8.31958146483151    8.70492548612379
N         1.47280618605971    6.86644781886126    9.60360752665060
C         3.75382205763565    3.73190172636865   10.90102907196373
C         4.73346179159299    4.71718394575333   11.21177195147490
C         2.51844476017302    4.13551768329588   11.50443786551620
C         4.13150332614761    5.67264159768208   12.11965818845449
C         2.77496751598632    5.30806782547951   12.30309123259864
C         1.09987709401078   11.57954921297599    6.58704441129860
H         1.94989329974579   12.15397748804257    6.25270122288553
C        -0.18544071277111   11.99284226978349    6.27595623191656
C        -1.09808195025233   10.11662315454509    7.43373063890933
H        -1.95782190540832    9.55219025564723    7.75683591345482
C        -1.28837014320260   11.26651443339960    6.69465538428290
H        -2.28401940537230   11.59863838339698    6.44397674440889
C         6.19494281458608    4.64723690545530   10.90303452229604
H         6.36855342949543    4.12927789600200    9.96292212524960
H         6.71850329176512    4.11409752495569   11.69926401772233
H         6.61886586183600    5.64584371295672   10.82549124020879
C        -0.56679676663576    7.58007278787844    9.07208265276458
H        -1.63306925056633    7.62474830531279    9.00061375659840
C         0.36765826707868    8.46685651817816    8.53974113095862
C         0.17546183045999    6.60071766064392    9.71938847221009
H        -0.17475657741655    5.73061137464481   10.23706730053238
C         1.28057891344754    3.29954872655553   11.52074076259528
H         0.42368532137677    3.86498960825897   11.87851527073688
H         1.42066571740657    2.44345795385221   12.18366318767644
H         1.06297407267438    2.92252598692862   10.52347058627206
C         4.88665074285175    6.74774861945023   12.82771018853451
H         5.42021084146081    7.37628397979677   12.11602594149066
H         5.62122792577456    6.30030279981287   13.49871692944500
H         4.22158682803559    7.37935290372650   13.41026591238994
C         1.80616635597786    5.94391532595854   13.24559814348187
H         2.03451186032902    6.99664733848802   13.39329030276327
H         1.85502333767135    5.44372410076896   14.21448692093381
H         0.78618245824390    5.86567917033188   12.87609129149046
C         1.28305762488679   10.42791732660509    7.32636910166193
H         2.28854945530396   10.11513385242939    7.55984958274268
C         0.18684515171398    9.67845410903871    7.76250148707248
C         3.95364586999297    2.47052262615025   10.13065050971722
H         3.49459346658092    2.54686537874271    9.14424473433320
H         3.48865874968839    1.63841457231056   10.65818561354360
H         5.01180463236078    2.26098340186839    9.99867708974439

