73
CSD_code = LIRZOD | q = 0 | S = 0 | Stoichiometry = C26H32N8P2PtS4 | MND = 4
Pt        3.18371342572932   -0.00009886453532   -0.00010407993215
S         1.79151174485297    0.28082744245940    1.94490778747184
S         4.63616786109651    1.34684359028557    2.19623944997506
P         2.20753425009680    1.87440489628856   -0.85338961160995
N        -0.10999351586163    3.21871183973180   -1.40870441525247
N         1.79722207567766    4.57772558677696   -0.76126743690338
N         1.72916936468289    3.55224088962028   -2.96382390148310
N         2.55058851820122    2.39947741857433    3.36333246918115
C         2.87449213558389    1.43568494123613    2.58896753505773
C         3.61565177219862    3.17064277302018    3.72233385189571
C         4.85621759755002    2.77649422537893    3.17071847744115
C         6.01690854624622    3.47927152527489    3.43104778215573
H         6.95614129146910    3.16529680617308    3.00297530720497
C         5.93822662326425    4.58996175283272    4.25148391865827
H         6.83338538863076    5.15346758444815    4.46694154342801
C         4.72386799184133    4.98774365265310    4.80258701330338
H         4.69206052592136    5.85749407336085    5.44155077999501
C         3.56145691979889    4.29010747962786    4.54625931390084
H         2.61503011151514    4.58668956018655    4.96879795773259
C         2.47022629111670    2.35452376714878   -2.62611366195895
H         3.53908515542857    2.52296099124035   -2.80260496529862
H         2.14365212965714    1.53337205997356   -3.27498935069135
C         2.54519615133517    3.53504960517130   -0.09208324431403
H         2.25969971441718    3.51866721158919    0.96617978444540
H         3.61732056832808    3.75627044748566   -0.16032112979098
C         2.15475462026688    4.69024747756119   -2.16611683040528
H         1.67030969314382    5.58599037231489   -2.56725298687047
H         3.23884847742083    4.80215905783490   -2.25204392733270
C         0.29666834597543    3.36527080014209   -2.79681794405462
H        -0.01558295921227    2.47978087436876   -3.35663577807131
H        -0.20929530391887    4.24469751399623   -3.20736850559380
C         0.35534182338864    1.97090924698813   -0.83958712123133
H        -0.05251316895159    1.13296684453553   -1.41695862276898
H        -0.00062617278643    1.88399886901433    0.19359171246324
C         0.36252468472746    4.36558956803518   -0.65099353062672
H         0.10143042716300    4.23205072031750    0.40192126315832
H        -0.14151959891466    5.25781399648965   -1.03535716688350
S         4.57538888789712   -0.28136971720675   -1.94563509979765
S         1.73014101897172   -1.34663809705427   -2.19459594710890
P         4.15964586098514   -1.87463823780078    0.85364239344362
N         6.47698412730066   -3.22070743876865    1.40536541366007
N         4.56722935483188   -4.57835531671707    0.76257504295649
N         4.64050899450446   -3.55137290729761    2.96432441616200
N         3.81437417568377   -2.39958379845547   -3.36374225780049
C         3.49135220501441   -1.43534410849164   -2.58961845771298
C         2.74873436884944   -3.17025268116462   -3.72216295510290
C         1.50867198988072   -2.77559323725271   -3.16976934655725
C         0.34748246649840   -3.47782971523440   -3.42941474659513
H        -0.59126822283858   -3.16369888869595   -3.00037409265586
C         0.42513730718351   -4.58837417810237   -4.25013587630722
H        -0.47037393613398   -5.15154353657020   -4.46503671882148
C         1.63895679017757   -4.98657661971355   -4.80213326839985
H         1.66993900585584   -5.85609116467581   -5.44146353159161
C         2.80187961825636   -4.28959295993280   -4.54632949702341
H         3.74785527996829   -4.58642624582471   -4.96971332156549
C         3.89989010696699   -2.35319915864313    2.62726698955610
H         2.83119804999296   -2.52051882318514    2.80586314949483
H         4.22849564699918   -1.53186386826454    3.27489927407856
C         3.81893701136276   -3.53545692410454    0.09408611291972
H         4.10223261042908   -3.52020957703630   -0.96481373455035
H         2.74673956825804   -3.75548683660452    0.16475007788794
C         4.21234504697582   -4.68953384800455    2.16821245619363
H         4.69678751519615   -5.58542745765935    2.56902438307587
H         3.12833160615579   -4.80042997135361    2.25637258539711
C         6.07286182605158   -3.36587799210873    2.79437001960071
H         6.38704492622793   -2.48029510471282    3.35294980099190
H         6.57878617635263   -4.24549076152073    3.20458137683620
C         6.01173424756588   -1.97288064676203    0.83623348605270
H         6.42135822674428   -1.13489027937545    1.41226615142172
H         6.36593556390402   -1.88698266685239   -0.19765727942428
C         6.00190194964752   -4.36764327537416    0.64934837464342
H         6.26106702945295   -4.23504500015906   -0.40416449648284
H         6.50584009181327   -5.26008555704419    1.03332738624167

