69
CSD_code = LIRZUJ | q = 0 | S = 0 | Stoichiometry = C20H30N10O4P2PtS2 | MND = 4
Pt        4.93744138610913   11.15931116184921    3.45929130048074
S         3.48257101210233    9.97262340778362    1.92817306040279
P         4.62557294907001    9.46162430395797    4.91670922839855
O         1.79450730019789   14.03198835745714    4.00616289242703
H         1.00376463655150   14.54009355586611    4.22797894020021
O        -1.22040231115474   11.14723305606208    1.66778827751089
H        -1.89454655724803   11.78720072466271    1.93035001487319
N         2.85138213540723    7.95506804665116    6.38594724441979
N         5.12132425954088    8.10882172321159    7.25106775013651
N         4.65509686375413    6.74550658563928    5.28813610378602
N         2.47202943505571   12.11737689994709    3.02134755964971
N         0.98139897872665   10.70357476350626    1.83981687242096
C         2.18761252963009   11.02037035393366    2.29592559523562
C         1.46946119634852   12.92957874190141    3.30736116942232
C         0.16528016887100   12.67026715350594    2.89422688745167
H        -0.65317918012446   13.33104767901650    3.14100400565225
C        -0.01825832977948   11.50943499139143    2.13748279352642
C         5.50117948180445    9.31940041447925    6.54799491524992
H         6.58344969466531    9.31099977103133    6.38164729055337
H         5.26096524954042   10.19056143327659    7.16854070100238
C         2.90727756839846    9.13985242829994    5.55005407606565
H         2.56534289043941   10.00452299740369    6.13077946281813
H         2.23179978375813    9.00848714781496    4.69643145576037
C         3.70038680189533    8.08796507494985    7.55836754298702
H         3.50942060088343    7.23087242943194    8.21271765874433
H         3.43742008602358    9.00700511136730    8.08899416814396
C         4.96260604841580    7.75236766396034    4.28970399218266
H         4.35248017111311    7.58021585766846    3.39586419185273
H         6.01483292114886    7.67796021522379    4.00108475735893
C         3.24772773566987    6.76387603483421    5.65043735338512
H         2.64509946134016    6.68944815549687    4.74183346606513
H         3.04855902650269    5.89435580182188    6.28582525675093
C         5.45599663060063    6.91644916759844    6.48776470093928
H         5.29191051227210    6.04705435469109    7.13344898146257
H         6.51204511072866    6.95952910446801    6.20783264419095
S         6.39763287500434   12.34241212093002    4.98925804178600
P         5.24380835970427   12.85484285709325    1.99795793872560
O         8.06871847151351    8.28120790799429    2.90137877945614
H         8.85755938852549    7.77263115444848    2.67403197386932
O        11.09902897768637   11.15508212545726    5.23299964880518
H        11.77116651157223   10.51593424276058    4.96368052058216
N         7.01015708203905   14.36113440494346    0.51885663961109
N         4.73877588518024   14.19763203304102   -0.34039402509257
N         5.20547772487222   15.56938201497807    1.61658887374398
N         7.39920483064993   10.19525381150770    3.89271553980203
N         8.89731801338497   11.60389168409676    5.07081913817687
C         7.68863252156545   11.29071900695465    4.61852807190868
C         8.39899205087280    9.38182443252490    3.60064992783254
C         9.70551016228185    9.63828217183596    4.00796378058722
H        10.52190948750133    8.97709619777614    3.75529227891754
C         9.89422114515705   10.79674842945640    4.76715006985978
C         4.36418755987887   12.98859537128995    0.36804406263217
H         3.28221385545723   12.99444327505415    0.53651757259982
H         4.60556998105863   12.11591141740405   -0.24989572614574
C         6.95966058998701   13.17929430786835    1.35929695296006
H         7.30201537622269   12.31344464736345    0.78059861830418
H         7.63729966902622   13.31517540172414    2.21048767406028
C         6.15889261814361   14.22160390498188   -0.65117084074418
H         6.34583713384079   15.07682547810912   -1.30914362716769
H         6.42316974538924   13.30139445620107   -1.17905737184829
C         4.90337708436616   14.56525498082508    2.61952143597790
H         5.51471260619481   14.74257168977147    3.51149392060836
H         3.85146944953714   14.63726903359036    2.90986898177806
C         6.61202098480863   15.55374703258708    1.25102675066421
H         7.21657501326024   15.63324016191615    2.15794028171062
H         6.80704746042451   16.42153205039195    0.61200577124967
C         4.40234779049856   15.39172481394034    0.41939577787850
H         4.56239313013042   16.25928245490776   -0.22977463101813
H         3.34704021604994   15.34657025614627    0.70177488640744

