77
CSD_code = LISBAS | q = 0 | S = 0 | Stoichiometry = C24H38N10P2PdS2 | MND = 4
Pd       -1.46955819188677   -0.00005048904278   12.02771363856210
S        -0.03098451797612    0.80759898841426   13.77762124615223
P        -2.06043092833631    2.07583171334447   11.42590114793009
N        -4.02786944238657    3.90978352002749   10.87054169227629
N        -2.09771071339153    3.91945648913957    9.38857505514560
N        -1.90394497144436    4.80905871636747   11.64569838862705
N         0.93537870349599    0.59243966337935   11.36014590830058
N         2.42861749473676    1.37033362484984   13.02170372429574
C         1.23522494261313    0.94282810504037   12.62485295278741
C         3.38918654215749    1.44950811372934   12.11517139981899
C         4.72162366855675    1.93756419305012   12.58390743527617
H         4.67366241310226    2.15644448377967   13.64617408067910
H         5.00376921763229    2.83746551222485   12.03977684692943
H         5.48256149038117    1.18034172815195   12.40255601386269
C         3.16981469479074    1.08970989439321   10.78479777779182
H         3.95809910288050    1.14565971040470   10.05140538134038
C         1.89423956653695    0.65552311241426   10.44691659636748
C         1.49943577224458    0.22742806168758    9.06941230792467
H         0.46158327712486   -0.11281994347500    9.09555387088317
H         2.14107817868908   -0.58131862864362    8.72396972608911
H         1.59351751882488    1.05496683191933    8.36771148767506
C        -1.41586452899969    3.59701139059018   12.27456887297564
H        -1.72240632210269    3.58170110268528   13.32750702260653
H        -0.31942879170643    3.58935939098363   12.24529230065532
C        -3.85132639539526    2.56621857187936   11.38486615097557
H        -4.40068764489505    1.86198733509510   10.74810101580848
H        -4.26434618273862    2.50969235253740   12.39994691775285
C        -1.63829054097791    2.57706628851545    9.68983288337752
H        -0.54970644506410    2.53067125911131    9.56251857152443
H        -2.10015652142610    1.86519505917947    8.99431174693115
C        -1.47780726780181    4.90532438722086   10.25925501303209
H        -0.39142677392702    4.79120391646412   10.21221940972027
H        -1.74871778433131    5.90023683722529    9.89088487158705
C        -3.35378648111372    4.89608371790420   11.69951846543948
H        -3.64622506911222    5.89037095320745   11.34632819631723
H        -3.67998508725723    4.77504025006477   12.73586413808023
C        -3.54285070827821    4.02868276126099    9.50457381834890
H        -4.00907438283287    3.25267525743469    8.89229773632479
H        -3.83970084922563    5.01210519729437    9.12561634577413
S        -2.90922323784823   -0.80584211044408   10.27819056983252
P        -0.87906309318524   -2.07560331757587   12.62939561352878
N         1.08849651696375   -3.91176493487672   13.17552466303435
N        -0.83548722898958   -3.91980093757357   14.66566741115528
N        -1.03976350313808   -4.80838192407615   12.40902805125792
N        -3.87458803198966   -0.59171978779940   12.69608731725026
N        -5.36815462454773   -1.37045399532604   11.03526787384389
C        -4.17468291104672   -0.94280457848401   11.43157444364663
C        -6.32841437507752   -1.44963707694516   11.94217450795487
C        -7.66094028794650   -1.93806134842440   11.47406669020759
H        -7.61375590268450   -2.15595951527020   10.41157360703259
H        -7.94201972477270   -2.83867274979442   12.01758531325013
H        -8.42222439989016   -1.18153288286358   11.65681815957257
C        -6.10866347754482   -1.08950288379977   13.27235712513503
H        -6.89659599755653   -1.14541415178234   14.00613482920561
C        -4.83307170321303   -0.65479844229479   13.60964617291416
C        -4.43797109205035   -0.22599815553110   14.98683857014130
H        -3.39953892397493    0.11247847156802   14.96067457045264
H        -5.07825980237433    0.58435866940193   15.33104910669456
H        -4.53389696770209   -1.05251891463781   15.68946408206631
C        -1.52910437048171   -3.59551681854033   11.78275383720229
H        -1.22722720350784   -3.58012285540816   10.72846634585961
H        -2.62541020605824   -3.58649096066763   11.81690764846507
C         0.91149607525233   -2.56780122219250   12.66234327620479
H         1.46462154337224   -1.86446022872080   13.29683391548566
H         1.32001221448366   -2.51154544380448   11.64541010476227
C        -1.29484747647618   -2.57682466123538   14.36698863628318
H        -2.38292626614163   -2.52946896122134   14.49842620802400
H        -0.82970293938178   -1.86575860389577   15.06113154937156
C        -1.46007331581543   -4.90471002610261   13.79726135707059
H        -2.54613702436324   -4.78955868666241   13.84899892075338
H        -1.18854609110212   -5.90002660608104   14.16407677236473
C         0.40975078999763   -4.89697794577466   12.34903930643169
H         0.70255594134378   -5.89173595501725   12.70060629253425
H         0.73167578101276   -4.77592019743959   11.31135347428173
C         0.60903315991457   -4.03047616701222   14.54350330518979
H         1.07864725831752   -3.25507498542782   15.15396906877219
H         0.90649485706415   -5.01427853809985   14.92100114682587

