56
CSD_code = LISCIZ | q = 0 | S = 0 | Stoichiometry = C22H27ClF2P2PdSi | MND = 4
Pd       -0.27044217289123    2.08722833580730    4.06800663944532
Cl        0.36729560299254    0.06636665614651    5.09103403415681
P         1.73010187024219    2.08947690440950    2.98648804718745
P        -2.15169687080832    2.09984234990001    5.35669723377689
Si       -1.04876436060452    3.82899477260852    2.77099656807614
F        -0.06383819869349    4.85621330802323    1.95701453750881
F        -2.06046309544614    4.99857218244891    3.31562346834398
C        -2.02760688599415    2.87223977521578    1.43092414971396
C        -2.04058376231237    1.47815521085610    1.46915884172913
C        -2.74047957532450    0.74732011495403    0.52628106818043
C        -3.44159372969619    1.40183844792516   -0.47387163617825
C        -3.43773803758178    2.78535723870402   -0.52545951032209
C        -2.73559523426791    3.51191283563826    0.42051386697179
C         1.72367617984327    2.16805537252391    1.15550731626469
C         2.91576695225007    0.73019711050920    3.28836824684908
C         2.67965636730678    3.54935912898217    3.51350682126349
C         3.87059806247553    3.93743815788651    2.91177240209144
C         4.55285964431886    5.04512498896720    3.38072096755937
C         4.05743168748755    5.76615369766837    4.45543888681394
C         2.87377503196754    5.38090685750171    5.06267259226190
C         2.18704485607589    4.27711332049592    4.59125597894988
C        -3.79984597254431    2.61473538672163    4.75063819286158
C        -2.58346893294486    0.62966459697706    6.35819570638347
C        -1.68029975138586    3.31047803944538    6.63040022610872
C        -0.35844673634658    3.22325871542316    7.07168051846202
C         0.12421890633950    4.11802377891579    8.00831436947278
C        -0.70584590483746    5.11173446019290    8.50407962734069
C        -2.01593373839531    5.20351859735109    8.06601941686208
C        -2.50629519129765    4.30711141939211    7.13115579391737
H        -1.48866818308756    0.94031985432194    2.25792965458047
H        -2.74198473215757   -0.33285100472874    0.56849902481684
H        -3.98961652305210    0.83280805786037   -1.21103821715138
H        -3.98361335920188    3.29769990236494   -1.30476764197056
H        -2.73258685874524    4.59103931847055    0.38112535001348
H         1.31040784960900    3.12206686783209    0.83705206372923
H         2.73052759633772    2.04908151834016    0.75806515046664
H         1.09057977366863    1.36534351879304    0.77440824339632
H         2.48772758822521   -0.20086226802122    2.91779683495656
H         3.85945353774871    0.93908906289782    2.78412414211727
H         3.07737118276480    0.62842700503891    4.36062983865172
H         4.26281920389844    3.38131945306548    2.07222307377300
H         5.47458147235084    5.34911432674750    2.90625961372043
H         4.59448595972847    6.63065263235793    4.81671459481839
H         2.48294937620173    5.94257893653280    5.89823234833882
H         1.24493877545444    3.97454049123980    5.05469781154963
H        -4.53588413973800    2.55694075138423    5.55166616050404
H        -3.75101640839859    3.62618026817478    4.35607268708509
H        -4.09580549973889    1.94239764401613    3.94445491871194
H        -3.34554258811352    0.89487387049067    7.09155762644912
H        -2.95570518956704   -0.15117321387252    5.69518964280550
H        -1.68935304332366    0.26019728428071    6.85749676029481
H         0.28479528070391    2.42849677726048    6.68557324075726
H         1.14714182102140    4.04604020005084    8.34843171892770
H        -0.32981270716312    5.81703790843577    9.23052965724166
H        -2.65995323188189    5.98067654242173    8.45094317688946
H        -3.52602396304217    4.39387253248474    6.78809815247691

