55
CSD_code = LISDEW | q = 0 | S = 0 | Stoichiometry = C26H25Cl2PRu | MND = 9
Ru        1.59477725159631    9.36988168145459    1.83944844746769
Cl        0.04344915919944   10.81329066418473    0.83240731297980
Cl        2.82110889093136    9.41894123387647   -0.16698470020208
P         2.60736954073554   11.29689754057792    2.53531487932477
C         1.92122513507037   11.66799813987490    4.17754103111113
C         0.59047061890090   12.08065685769363    4.22871697318881
H         0.03908179025519   12.20046869248689    3.30532860796182
C        -0.02064860322979   12.30233355961264    5.44847794498236
H        -1.04994558688391   12.62736948804017    5.48401386838379
C         0.68401085552343   12.09967117067324    6.62562314682808
H         0.20614506545688   12.27148166610290    7.57880302939709
C         1.99814723073852   11.66489990970762    6.57926247906040
H         2.54367112164669   11.49390113897841    7.49605198887608
C         2.61663303767529   11.44336564114037    5.36053000374886
H         3.64086232868737   11.09837189547081    5.32742318729066
C         4.40673001005151   11.24534480379257    2.77980990430111
C         5.13973948956464   10.18219570125133    2.26771332555337
H         4.62408611145024    9.40503511610659    1.71873611521375
C         6.51456574335163   10.14712125667589    2.42589095277836
H         7.08240924078921    9.32354173914283    2.01927502474403
C         7.16123729689789   11.17057964034393    3.09787034831180
H         8.23378100661153   11.14414177968503    3.22195539194182
C         6.43356055334640   12.23549861342137    3.60716596597070
H         6.93918374669504   13.03623568448080    4.12705382767142
C         5.06126662632102   12.27742556638074    3.44853053864243
H         4.49367255366258   13.10680616326276    3.84830157888096
C         2.39075742852105   12.88616399965275    1.64375138252558
H         1.32077287944787   13.10070143584120    1.58993430778228
H         2.88984825479834   13.67204330544196    2.22178561072324
C         2.96846611587536   12.79300900501046    0.22810690339876
H         2.47908023786550   11.96355454945143   -0.28856559684611
H         4.03938432406774   12.58071961651029    0.27797282032644
C         2.71201353817114   14.07478152829869   -0.50819386470046
C         3.69210821490497   15.05170046932453   -0.61445574126011
H         4.66952313055445   14.87523722470589   -0.18659147937621
C         3.43093490487051   16.24179914987776   -1.27172740813712
H         4.20378597239943   16.99280696288738   -1.35351878370411
C         2.18291250900575   16.46897735022552   -1.82491287539297
H         1.97949197841850   17.39676442889455   -2.33978846788263
C         1.19755027807900   15.50100571068187   -1.71911682063702
H         0.22298997723988   15.67366896417788   -2.15219915454825
C         1.46023301258844   14.31212871357712   -1.06369665207394
H         0.69662336829682   13.55221649325039   -0.98291946613479
C         1.56042765662838    7.07633246985990    1.60217486503731
H         1.85715173579221    6.44402809318314    0.77225485118314
C         2.51554898607003    7.42740498494202    2.58604675618014
H         3.52678608973204    7.04413303415129    2.51911858889632
C         2.12022326239504    8.20121761728467    3.69295790195517
H         2.82766043732779    8.40660115583359    4.49016937727820
C         0.76653633485002    8.59873385036898    3.84019255972333
H         0.44687604204473    9.11517625757477    4.73769789985582
C        -0.15208258148689    8.29772282493656    2.82837050337811
H        -1.18887482758146    8.59797953819126    2.93353517806568
C         0.23708345716458    7.51120549261212    1.71218866786745
H        -0.50090293308953    7.21883042883690    0.97446696210641

