72
CSD_code = LISGIG | q = 1 | S = 0 | Stoichiometry = C34H33ClNP2Pt(1+) | MND = 4
C         4.06385494700706   13.51257472672567    5.64368125569403
C         4.81633342974188   13.35016914263673    6.80152909311498
H         5.24867710872141   12.39278962068971    7.05222041512247
C         5.01937168982511   14.42190821231113    7.65294852962420
H         5.60558983362078   14.28447150656045    8.54803467397808
C         4.47423451766195   15.66116460484230    7.36156956713655
H         4.63647268608984   16.49317447758230    8.02800529856713
C         3.71879996634084   15.82491004128147    6.21351714407036
H         3.28618593820755   16.78433346172613    5.97792356239822
C         3.51330174662267   14.75490648945396    5.35998326615292
H         2.90895276098943   14.89115128483207    4.46135578082444
C         3.03191090020133   11.35285293955346    5.40211964443200
H         3.54650922496275   10.99838120725889    6.30393340960656
H         2.93353969495268   10.50876754470871    4.70980203520278
C         1.64028794944063   11.86747242222678    5.75972487439329
H         1.70856819798417   12.69858653399197    6.46712314512301
H         1.05200180627760   11.06456445043469    6.20941340272731
C         5.10942089190614   11.84714332748313    4.23914201977202
H         4.87009878079386   10.97878277597073    3.61457892415488
H         5.73081152868758   11.50422332127666    5.07541304494025
C         5.86982204306222   12.87874513161327    3.40785566040490
H         6.80519081747058   12.45827239648338    3.03456349530458
H         6.10887023000548   13.75597635958274    4.01603714720174
C        -0.51113489953682   13.54030574778037    4.68040937801143
C        -1.12871317088526   13.45494204515510    5.92482506965562
H        -0.78351646265283   12.74542917922675    6.66314290817799
C        -2.19411260087787   14.28822877249057    6.21498105305703
H        -2.67673393004626   14.22290750598909    7.17844514420688
C        -2.64250928977647   15.20259389635377    5.27493044118371
H        -3.47463751547235   15.84818669548107    5.50988666400447
C        -2.02442428087776   15.29133434453802    4.03751586713090
H        -2.37350158784381   16.00502893821309    3.30734200368971
C        -0.95846361375996   14.46357868231602    3.73782929724105
H        -0.46230359004918   14.52175919076525    2.77775126400452
C         0.11317030108756   10.97520051548425    3.48965370273934
C        -1.09037253671257   10.45980330818675    3.95905140444027
H        -1.62756235872479   10.97077912119625    4.74589194817591
C        -1.59907213545758    9.30129640373487    3.40110304532732
H        -2.53488375994411    8.89988137602083    3.75880337272602
C        -0.91473213163481    8.66012300800640    2.37975190322189
H        -1.32098781297930    7.76010243354702    1.94464891352308
C         0.28108660261550    9.17667876716154    1.90648491689470
H         0.80499552949772    8.68205126398341    1.10279007567584
C         0.79493121169057   10.33519794865318    2.45841497966518
H         1.71839394263874   10.76927841354623    2.07742746488311
C         5.25040594715067   15.13031885325335    1.68343716932051
C         4.30964707722514   16.14712933573073    1.80087841114094
H         3.28889919752751   15.89941435533201    2.06875871572317
C         4.67835992263044   17.45594633345587    1.54536787917877
H         3.94945436355274   18.24745730109466    1.62865486966615
C         5.98130500060954   17.74688394413002    1.17590275284399
H         6.26841894159925   18.76735901241917    0.97409829290882
C         6.91890099378679   16.73158573374885    1.05497670920128
H         7.93083152908714   16.96332917328061    0.75974100864720
C         6.55831982439993   15.42133326647404    1.30539349184385
H         7.27989886599516   14.62261008415099    1.20117657732875
C         5.24267130459060   12.50914610168113    0.54758653967842
C         5.89396772407985   11.28041658796311    0.58981962132775
H         6.17326795529772   10.83383552567164    1.53383874129637
C         6.19483612374888   10.62264196254830   -0.58984743947624
H         6.70929699787994    9.67407716224045   -0.55646283270917
C         5.83624756139585   11.17527330467424   -1.80836462279551
H         6.07424260829792   10.65701752245947   -2.72431860287247
C         5.16701672318326   12.38883404375912   -1.85199624054750
H         4.87877773082407   12.81474411380814   -2.80059248185961
C         4.86552638406802   13.05389464059680   -0.67946900786596
H         4.33549233494826   13.99641552658809   -0.70122391909337
Pt        2.72031554429699   13.07102877607552    2.99816217953948
P         0.85794204393632   12.47135337807399    4.18599369837751
P         4.75423401888032   13.42776948407523    2.02685922935968
Cl        1.59737626500988   13.72251675348495    1.12146288137223
N         3.83252441519743   12.40075818611015    4.73481017085646

