72
CSD_code = LISNOQ | q = 0 | S = 0 | Stoichiometry = C29H39ClO2Ti | MND = 8
Ti        3.27261744831923   11.55396260888175   14.20553458956031
Cl        4.33807107542277   11.86167142513700   12.29199890382598
O         1.68979227796155   11.62637416090029   13.59776423358227
O         3.64547693552106    9.94519925050539   14.53720564591012
C         2.86430730350424   12.67872235975651   16.18206923693054
C         3.11353335947945   13.67234165051779   15.20445475900412
C         4.44931440634591   13.54158798795999   14.78685573935387
C         5.03575853963123   12.47660726601349   15.50374434154126
C         4.06655908926970   11.95748443408986   16.38096374752224
C         0.51467703865935   11.12466591261549   13.20213220342469
C         0.46283385181949   10.06546863097360   12.27251562397564
C        -0.77597968498515    9.57246012664410   11.89328418145328
C        -1.94725274323235   10.08238719463264   12.42334563707948
C        -1.89180957626538   11.11850149637393   13.33509342499483
C        -0.67748812054362   11.65921247971052   13.72679497023100
C         1.73988081787112    9.53716833440556   11.66291721066785
C         1.99283583776754   10.26958193157299   10.33954183038673
C         1.72201692638815    8.02307368442241   11.44986196938382
C        -0.61753965580409   12.79944026359539   14.71702432325698
C        -1.02013000546417   12.31386574962997   16.11223443643571
C        -1.49134040906448   13.97581539613600   14.27854776692645
C         3.55423953723468    8.61623919152894   14.50700819313987
C         2.43008113407950    7.97840082811642   15.06522332601486
C         2.36248616011318    6.59509940788757   15.01931124392726
C         3.36590467221871    5.85187621359920   14.42323627826736
C         4.46946526292896    6.48599869111350   13.88269603024542
C         4.59183217998190    7.86556460182431   13.92547010391644
C         1.36734439837786    8.81612944476967   15.74102606508590
C         1.61514223737819    8.82124375208709   17.25429134498333
C        -0.04997036661043    8.33640683324491   15.42837389502214
C         5.79669157354072    8.58104905908560   13.35866213175814
C         5.77168125671748    8.53638539064741   11.82878000659593
C         7.10164409179994    7.99416982453868   13.90008040716796
H         1.97653028663559   12.59806435911240   16.79645230231693
H         2.44035663857539   14.47193018722826   14.91751549893610
H         4.96792056578592   14.20299202436086   14.10392780662264
H         6.07994204471589   12.18974301014650   15.46716588222986
H         4.23726485716012   11.20648523704380   17.14363526086544
H        -0.82921169245857    8.77242520339782   11.17174967347113
H        -2.90058432432389    9.67586053252703   12.12096557569384
H        -2.80769009600331   11.51646550773304   13.74485008965275
H         2.56874703063433    9.77562757366495   12.34702018102561
H         2.08573770846091   11.34024578046889   10.51660915840848
H         2.91553454150600    9.91833079860747    9.88349821500656
H         1.16990321136577   10.09771181319686    9.64775338236933
H         1.03832353069771    7.74465230282967   10.65141864454298
H         2.71662694372415    7.68073304832587   11.17478336196079
H         1.42930071875564    7.50884594120055   12.36256204479537
H         0.42197135709698   13.14671280019154   14.75757813098395
H        -2.04553004814417   11.95041983910643   16.10873594669305
H        -0.36914409448992   11.50206640487069   16.43284179197007
H        -0.94651414200461   13.12687436063096   16.83226356788624
H        -1.34385524752998   14.82051728571925   14.94862466514077
H        -1.23109635710334   14.28482439056346   13.26867199882673
H        -2.54519744748433   13.71010331997753   14.29579963887693
H         1.51387279980377    6.08770396689828   15.45150374819957
H         3.28976769485852    4.77556718289950   14.38719915036307
H         5.24944088792717    5.89663973450152   13.42537386108596
H         1.47176567422751    9.85256496472056   15.37395070679729
H         1.54660517717400    7.81021180032561   17.65092136912461
H         2.60866656621680    9.20941446352261   17.47289058352490
H         0.87831229423749    9.44176235731226   17.76079145926839
H        -0.77752905568132    9.05149638648565   15.80528963152141
H        -0.19408101547258    8.24433447722465   14.35485515936720
H        -0.24939440452945    7.37504233179574   15.89532955318332
H         5.73952050950142    9.63747504776866   13.66470292570647
H         4.90330784829891    9.07430403613503   11.45531792096009
H         6.66285293709481    9.01349322230722   11.42806987715624
H         5.73518975047300    7.50822309425919   11.47375179723910
H         7.25758313562757    6.98281432736018   13.53290725910298
H         7.94321410780396    8.60427979174060   13.57973856938375
H         7.08689225655382    7.96738551087520   14.98773980816472

