84
CSD_code = LISNUW | q = 0 | S = 0 | Stoichiometry = C33H48O2Ti | MND = 8
Ti        5.63278010921738    2.40445022963105    4.67079278237732
O         7.05262693919566    1.40376867791125    4.69883150898305
O         4.44014598132197    1.44502940169588    3.88814025050614
C         4.15957081203206    3.58847822799822    6.12943559949979
C         5.20307919221258    4.47358658307695    5.79761792370721
C         6.40305554744498    3.95315317594966    6.32732126437420
C         6.09810623282834    2.75782533023122    6.99589876177403
C         4.71450034868200    2.51726629290006    6.85801345099276
C         7.97141618581800    0.80609765059093    5.45626061689907
C         9.33175432263646    1.16145744367363    5.32715615923598
C        10.27937857063288    0.58314668889328    6.15461564867145
C         9.92121001123805   -0.34860026214281    7.10916606915755
C         8.59911441125175   -0.73566757708456    7.20825504379009
C         7.61688043312124   -0.18917850813405    6.39593697559153
C         9.75120474133492    2.15179401731531    4.26751456372561
C        10.64474825797129    1.47922909270649    3.22254371230736
C        10.45096728443609    3.36598426753320    4.88122909812907
C         6.20478052654699   -0.72760751160295    6.48117744996839
C         5.63891641697783   -0.69163734298405    7.90446506893384
C         6.20712647796495   -2.17740928713959    5.98467097576937
C         3.72123938327807    0.98519553004398    2.86355241164415
C         4.23342315374422    0.01695816306737    1.97397974923251
C         3.47734473958771   -0.35262827168304    0.87058109231617
C         2.22544972257815    0.18127082407058    0.64097730492100
C         1.68995923495658    1.07538140208133    1.55043582733281
C         2.41327222095288    1.48411713805600    2.65654374513461
C         5.52882341031938   -0.70657670324695    2.26899184102080
C         6.48185198543426   -0.77528506056043    1.07280854043046
C         5.16932221575212   -2.13312990765632    2.70207998067634
C         1.83818685218537    2.41356733631242    3.69976136981927
C         1.40685479742901    1.57843436008104    4.91227620642634
C         0.67948908111210    3.27500213818612    3.20505440740067
C         6.04608462856570    3.61425437860590    2.98093743232210
C         6.56165318284027    2.71498222760956    1.84476889384441
C         4.77120429919588    4.29225512948530    2.44650072371464
C         7.08945175386875    4.72400056712694    3.20542804489640
H         3.10303308402364    3.79304883429012    6.02149824407391
H         5.07000514613691    5.46724195182536    5.39057057390005
H         7.36101720114694    4.45759927062593    6.34338823269992
H         6.79726722535303    2.18232737292519    7.58862142038594
H         4.14590403619296    1.73698848791907    7.34750335395592
H        11.31617117408510    0.86647940916011    6.05104176250538
H        10.66731063808401   -0.78340175805820    7.75716868247372
H         8.32496659449121   -1.48646650160698    7.93408207624827
H         8.83918089498361    2.49125603138410    3.76483091778326
H        10.13288688261604    0.62610016451723    2.78213273886004
H        10.89106087424079    2.18264448434084    2.42966312034678
H        11.57106277992376    1.12855784223834    3.67156872026371
H        11.39310034416402    3.07992099672902    5.34259733851646
H        10.66008161928329    4.10906053691619    4.11376262018828
H         9.82232684471980    3.82050388349961    5.64482959196726
H         5.55912535957713   -0.12419245760291    5.81813752722401
H         4.58307384257235   -0.95717033993844    7.89062782726904
H         6.15369811583814   -1.40922436410812    8.53963835195080
H         5.74557092267427    0.29073629799895    8.35531861460969
H         5.19200822982011   -2.56252961572553    5.91691682934122
H         6.67676405528318   -2.24075714493737    5.00813660258104
H         6.76696376206524   -2.80997711138801    6.67051512503806
H         3.87361124121927   -1.08128419884243    0.17988720679733
H         1.65683663651402   -0.11622530008001   -0.22721256517941
H         0.69434760464010    1.45668569620811    1.38924569350838
H         6.03572607129259   -0.18466844220423    3.09562082363415
H         6.65829691337500    0.20734645969573    0.64616311556716
H         7.43715183265611   -1.18736146520069    1.39184868571963
H         6.08200850546560   -1.42072198073498    0.29407040427163
H         4.63188671625804   -2.64069698756430    1.90332476838193
H         6.06697888653189   -2.70599188591547    2.92298966917220
H         4.53136199076883   -2.11697209983942    3.58173837901934
H         2.65197502887466    3.08101525703145    4.01427126254774
H         0.63975466293934    0.86310069978402    4.62057041721918
H         2.26044356585464    1.03013719535329    5.31131158800680
H         1.00305465961860    2.21685876990686    5.69620502427555
H         0.42651491823721    4.01700938268597    3.96015907891284
H         0.94934269835069    3.79682599762942    2.28970737895230
H        -0.20745923458689    2.67336242709244    3.02021682463600
H         5.77499507815909    2.03227101247249    1.52281825510750
H         6.84961060243887    3.32024354695322    0.97551128750460
H         7.43183742265645    2.13115040237524    2.15068749696852
H         4.30222621283954    4.94130119495831    3.18835327298844
H         5.01762479730961    4.91615268330051    1.57894389735316
H         4.04126860867805    3.55316650522395    2.11296698475448
H         7.99256043656215    4.35013937335622    3.68616414006168
H         7.38526786276353    5.15658748778555    2.24210129338285
H         6.69402318864399    5.53885615500077    3.81046484872305

