90
CSD_code = LISNIL | q = 0 | S = 0 | Stoichiometry = C39H48P2Pt | MND = 4
Pt       13.70627669886549    9.33616338161383   10.19981554311849
P        12.36824194952145   11.28127917547914   10.08827724785222
P        11.85953619948746    8.28332371699803   11.20751121806135
C        15.31258467631719   10.30222398720799    9.33488779923952
H        16.11704462187970    9.66338942387101    8.95331352398695
H        14.95573820556733   10.89878905472906    8.47799100445151
C        14.82785258554033    7.59313370555120   10.25065422419682
H        14.16280698061860    6.72076704196955   10.36369276598726
H        15.43097441699978    7.40964605941714    9.35152123954191
C        11.72047013573291   10.01427252491569    7.74339269202933
H        12.66754263952221    9.50698647034457    7.93653085676562
C        11.39611299611937    7.07485139793058    8.80856233326703
H        12.47820338002416    7.11435929464845    8.76108699044932
C        12.92913016288306   12.97740550813815    9.72126910654938
C         9.36706541214279    7.55288123960586    9.99663828520569
H         8.84145675866563    7.93107528316372   10.86077218575796
C        10.75526075187395    7.58794114391339    9.93503976099579
C        13.21309908718572   13.33439431642973    8.40640200012812
H        13.03044953265440   12.62577031588210    7.61005934094538
C         8.63860647443611    7.02293539269285    8.94578754184914
H         7.55933599060353    7.00663415400678    8.99923286267786
C        13.19383653048468   13.88677787601249   10.74150243952546
H        13.01399254311005   13.61281329786272   11.77155529117145
C        11.28921705434407   10.97917369694014    8.64791926341468
C        10.66691103400852    6.53063191267620    7.76908273121315
H        11.17544310139020    6.12671964214847    6.90588104131617
C        12.13120234019772    6.85358839629883   12.30667648030644
C        15.90641213784345   11.26632228984845   10.36230818608474
H        16.40360951574825   10.71109581103099   11.16178316340414
H        15.11774165635033   11.87526182698819   10.82173486058992
C        13.71957367120384   14.58743657467907    8.11600808587635
H        13.93311603254259   14.85590757395513    7.09128512581090
C        10.09633413709255   11.65336835684980    8.40951058758273
H         9.75982350620253   12.42470406722065    9.08779254204087
C        10.11938654595611   10.49046185776221   11.63222241960650
H         9.30671945616291   10.86507708998118   12.26470537207305
H         9.68457153310453   10.21629397390656   10.66633988429276
C        11.12824231409162   11.61950639967927   11.43121866642486
H        11.68767785324626   11.77532894058796   12.35924633384090
H        10.60448535543045   12.55185956169630   11.19844064409968
C        10.71545546778715    9.25292659258871   12.30034468635473
H         9.92050022881882    8.58705771891344   12.65135951333077
H        11.29663008436075    9.55320448589352   13.17818510318591
C        12.82592201520061    7.08491007212426   13.49145757651095
H        13.14530753314632    8.09053332766835   13.73209758979260
C         9.28323735472686    6.51051015175481    7.83294237623116
H         8.70727250445938    6.09656769391800    7.01834503318918
C         9.33681009339879   11.34200105853013    7.29672548389184
H         8.40638994820227   11.86256177001933    7.11957286091987
C        13.12059944255532    6.04228349736363   14.34732029300653
H        13.66314130840376    6.23152710610257   15.26180877731968
C        16.92024285426289   12.22700102843476    9.71833502000226
H        17.75446262077464   11.64211314298572    9.31973940745801
H        16.44058707599954   12.74881654933537    8.88658696933030
C        13.95693175259295   15.49537639809103    9.13457447664760
H        14.35068620213984   16.47522294404009    8.90689464322232
C        13.69608075818273   15.14022348745092   10.44765966232392
H        13.89196241973523   15.84051312104137   11.24666692980719
C        10.96384803545040    9.71140261373153    6.62650724987437
H        11.30602001261970    8.96189937772755    5.92858537049668
C         9.76558611984541   10.36943226557458    6.40732958907276
H         9.16646432870370   10.13080408100602    5.54083518312331
C        12.73250127119860    4.75191271063863   14.02265132667805
H        12.96534203731827    3.93316309172219   14.68750104797023
C        11.75644474148641    5.55615325019886   11.98082075610009
H        11.23322788350358    5.36133454004632   11.05509258313033
C        12.05487766124069    4.51223588790804   12.83941565919036
H        11.75957438818139    3.50560447890628   12.58012648613795
C        15.75536181650389    7.61765209165933   11.46602297382241
H        15.19709770254403    7.90065569596425   12.36480695879851
H        16.54986289052576    8.35157429996482   11.31623644204069
C        16.39196010099037    6.24140934304037   11.71775742923984
H        15.60177328201395    5.50129411691134   11.85109225909235
H        16.96934244845380    5.95780644150274   10.83151507761759
C        17.42955798740831   13.22098179698916   10.70838435025532
H        17.96627003826728   12.80613063985140   11.55319901217987
C        17.23827061446660   14.52683820397344   10.62673713809283
H        16.69644110953622   14.93733402424871    9.78349817059084
C        17.30669698249572    6.27585704144062   12.89851936233326
H        18.05260436334669    7.06083785954141   12.85048191316122
C        17.72184114290013   15.52656605762025   11.62583530207612
H        18.24959348336257   15.03797063818561   12.44144794152268
H        16.88191598458335   16.08700077127333   12.03726769417488
H        18.39426786264379   16.24233679933263   11.15232477654322
C        17.29610275041445    5.48544227912180   13.96132033524994
H        18.03704720035149    5.64782947240509   14.73581342012177
C        16.37636453212434    4.33898652998102   14.23393962525511
H        15.95145861393719    4.43211547289912   15.23360529885091
H        16.93297922848215    3.40106450505962   14.19987148452066
H        15.56499774518497    4.28627174068188   13.51438973842674

