91
CSD_code = LISPIN | q = 0 | S = 0 | Stoichiometry = C35H52ClN2Rh | MND = 6
Rh        2.53595780204345    9.83702201101437    4.43035946042731
Cl        0.41112252061541    9.24256418587317    3.79886447346922
N         1.53395775481704   10.14926152743178    7.22320929547949
N         1.68537651953233    7.95162605704417    6.48142504175021
C         1.90243493837520    9.25723171963898    6.29662934575770
C         0.73951502260626    9.92394189171966    8.42274651487823
H        -0.21660868769734    9.46604956640919    8.17677487224031
H         0.55092504268324   10.89169705331528    8.88572820673688
H         1.25402198572816    9.28801211598843    9.14420834920176
C         1.93120967625797   11.52177938324425    7.06927614560473
C         3.06684729220666   11.97600135140780    7.75677380592004
C         3.43211286637784   13.30966357268620    7.62987874502849
H         4.30279020365856   13.67801810549330    8.15046145962141
C         2.69444337739245   14.17452705579915    6.84504382397736
H         2.99978558010785   15.20601205876648    6.74563484430546
C         1.55047443539194   13.72711841134136    6.21626527279566
H         0.95830715698661   14.42102157688810    5.64096314137994
C         1.13683116650630   12.40393626299513    6.32923660604597
C         3.85266003678743   11.06960711400838    8.67867249619573
H         3.53172438643784   10.03973904943002    8.50707675122634
C         3.54733112244283   11.44929548645594   10.13231248350774
H         3.86020248091319   12.47232689250837   10.32819137420363
H         4.08107508923817   10.79164969053436   10.81520014229109
H         2.48277353057023   11.37557106201308   10.34191944396307
C         5.36391111542749   11.12398703664614    8.44506081516768
H         5.61142980853014   10.86801539082031    7.41840605044309
H         5.85821262946548   10.41218835866271    9.10344798072567
H         5.76409213971833   12.11109399122843    8.66045321873452
C        -0.19116957960329   11.98408135302151    5.74705052111353
H        -0.23822318819645   10.89362243327642    5.71222050809051
C        -1.32241587333096   12.49367245272922    6.64565672860692
H        -1.30740027256641   13.58074005842173    6.70052056336428
H        -1.22972655388502   12.10148834513065    7.65648276971837
H        -2.28264563036062   12.18107333131914    6.24217791237368
C        -0.37860794443028   12.49301567371080    4.31869889700061
H        -0.55423309902394   13.56622516306380    4.28921537460451
H        -1.22884219565035   11.99211253917733    3.86316294677361
H         0.50603281025243   12.26112128637903    3.73096132576366
C         2.06818278413972    6.99703517582045    5.45229881836205
H         1.18592392350387    6.64627589670576    4.91462246908312
H         2.56713557456140    6.14356632169226    5.91298188936645
H         2.73857907090061    7.48183416949848    4.73202056885591
C         1.03062994757009    7.27111050299779    7.56506288387373
C        -0.34372877013606    7.01249613596503    7.50029915471890
C        -0.92890756099579    6.29234590166120    8.53451513563502
H        -1.98782755576032    6.08745181571439    8.50538221593873
C        -0.17691345658320    5.82051715214598    9.59168654518285
H        -0.64859728844876    5.25784926443058   10.38379129807401
C         1.18354679935240    6.05550112710364    9.62752249560920
H         1.76701463320017    5.66705274286225   10.44796712275292
C         1.80825352291234    6.77746502925100    8.61939744186201
C        -1.18713704153151    7.45044310558696    6.32612992207635
H        -0.58844636549975    8.06574352414806    5.64944159161008
C        -2.40256810065991    8.28045222120897    6.74620646056251
H        -3.08401788058573    7.70791230954242    7.37192061448979
H        -2.93960104097937    8.59677318333841    5.85555443775813
H        -2.10609805310462    9.17397797772041    7.29172414914015
C        -1.65718914982269    6.21533689096606    5.54924169183925
H        -0.81907277120576    5.56642943338775    5.30413638193751
H        -2.13104097922859    6.52692123139495    4.62223690003789
H        -2.37343442137449    5.63820693427005    6.13091618536619
C         3.30367223633284    6.99999435968821    8.67859227268512
H         3.58610784414581    7.70007592581688    7.88494027493483
C         4.04940841018864    5.68250465688918    8.44449262523393
H         3.80516853441300    4.96255116033011    9.22216244285828
H         5.12365332774156    5.85384958784647    8.45811039057942
H         3.78472532653239    5.24452448825866    7.48486855588258
C         3.73326309179710    7.59628358498213   10.02223657978740
H         3.12393023822750    8.45820720556667   10.28326257230158
H         4.77355463607270    7.91087075712897    9.97262526941134
H         3.64190253689558    6.86405462994683   10.82044869977495
C         3.23073170706727    9.56150966329905    2.39718328843338
H         2.54936322758772    8.83673160802896    1.95058520940736
C         2.77566474980308   10.85770203549806    2.53974647765150
H         1.78290048485347   11.08285185333626    2.15005724050294
C         3.65653546032901   12.07273771744647    2.70199323257063
H         4.09471663350446   12.33634976794377    1.73229436388803
H         3.02796219983109   12.91151952247212    3.01297419263379
C         4.76128618994354   11.86658327246801    3.75112546676012
H         5.00885550324980   12.83336044654381    4.19583848456158
H         5.67016120777157   11.48550347268476    3.28248916271996
C         4.32698356823881   10.92317183299224    4.85198505058225
H         4.22739671700412   11.40851252906420    5.81486601832620
C         4.59033891866341    9.55370840101337    4.84785542250931
H         4.73314265356375    9.06445638786404    5.81254551326695
C         5.28003492770497    8.83180356247129    3.71056816488958
H         6.35087822161409    9.06648219177118    3.73081617191626
H         5.18807459838755    7.75509151850646    3.87920291529029
C         4.69274364682207    9.17779949094719    2.32830262561361
H         4.80021363614154    8.31070151568662    1.67278166346535
H         5.25215827907993    9.99569819052401    1.87162556893085

