70
CSD_code = LISQIN | q = 0 | S = 0 | Stoichiometry = C39H25N4PRu | MND = 9
Ru       -3.64448350137189    6.43091592135539   13.34819921062739
P        -2.95434386041822    6.85421623125381   15.52876582984443
C        -1.80921783934695    8.26053070477059   15.69005964035647
C        -1.04082258001045    8.60402518899849   14.58129726230113
C        -0.15419676520699    9.66111035961272   14.64886918266713
C        -0.03440711307135   10.38434384824334   15.82471480281102
C        -0.79569125460825   10.04419242967536   16.93073260821781
C        -1.68241126111406    8.98442767278679   16.86984196257439
C        -1.95668909284851    5.44827736126837   16.11664468921423
C        -0.57714099078916    5.51997108260043   16.26674833407627
C         0.13172155916240    4.39906559879643   16.66681241932041
C        -0.52873566041094    3.20881330117636   16.91893427825991
C        -1.90613222793005    3.13452607141352   16.77171045401997
C        -2.62001506241104    4.24600604467929   16.36617156626459
C        -4.10689991540584    7.11341440118987   16.92265670957230
C        -3.99639460694350    6.42233632829914   18.12623805916434
C        -4.90788311649593    6.64701405663991   19.14221103592625
C        -5.93369188431531    7.56137125364410   18.97556847640342
C        -6.03204834873373    8.27533034315022   17.79307081596038
C        -5.12400519786617    8.05478603414529   16.77452833246141
C        -4.11372514180108    8.51822405024964   12.89419002854680
C        -4.02734475305938    9.50755392602509   13.90167881848633
N        -3.96787473923656   10.36590113445821   14.66441906198309
C        -3.42411553991327    8.89303118561234   11.71136550063128
N        -2.80782172888907    9.18178741348667   10.78491755612715
C        -5.30352700164112    7.65784786292606   12.77797449785257
C        -6.13776207203952    7.59039524805248   11.57760932934450
C        -6.21537168075110    8.67878536921557   10.70423371458551
C        -7.03228125156658    8.63065241608135    9.59510566008069
C        -7.79853485198171    7.49503267784977    9.33160426150347
C        -8.62891757181713    7.44236067264391    8.18851047264823
C        -9.32951814832112    7.39434851901903    7.21458263372416
C        -7.74056697836129    6.41170225176205   10.21139686348766
C        -6.92616151978545    6.46283944469319   11.31942787265570
C        -5.51672946878444    6.85824812343420   13.92238637021143
C        -6.56835971798653    6.44594003681638   14.66655872730023
C        -7.81792715629415    7.10002861640107   14.62727019209922
N        -8.82807559288817    7.63975198124229   14.56454721520237
C        -6.40033861640151    5.37055552873674   15.56365501502896
N        -6.22486840588670    4.48018920163788   16.26664462846383
C        -2.14655239898853    5.94332366116922   11.72125046635843
C        -1.82897931476257    5.20306494806239   12.87524712333695
C        -2.92632547909398    4.30973878330037   13.14977728373467
C        -3.91028914983331    4.53001524643765   12.16997765486282
C        -3.45244794609113    5.57010895966090   11.31046201410779
H        -1.15167512642966    8.04056676563151   13.66043354718390
H         0.43320833613817    9.92821703359797   13.78305662560572
H         0.64827713462576   11.21919711978135   15.87571391277645
H        -0.70479199254588   10.61252408936089   17.84430500115712
H        -2.28324096957258    8.72451697294907   17.72936942523614
H        -0.05952813462069    6.44957553618802   16.07390004369130
H         1.20398971770933    4.45839516045369   16.78265054411542
H         0.02838459597147    2.33831012827552   17.23155449399277
H        -2.42353153482449    2.20813296521242   16.97265393400218
H        -3.69637329243185    4.19925196460364   16.25172803763871
H        -3.20099913051878    5.70837642531480   18.27694740578392
H        -4.81579308554158    6.09914066853413   20.06817139752378
H        -6.65068119548688    7.72225811823515   19.76634165513688
H        -6.81998508244068    9.00064121991722   17.65674186854071
H        -5.19712479719939    8.62912721786789   15.86213945693221
H        -5.64764332732842    9.57567895601018   10.90515533094434
H        -7.08597983011481    9.47629258085459    8.92606974272396
H        -9.94437587870106    7.35517282163609    6.36546795915730
H        -8.34019126142430    5.53496928888926   10.01618719030210
H        -6.88526113527899    5.61629616802134   11.99222808501075
H        -1.49316076594240    6.62090626489534   11.18999058541030
H        -0.85920050570546    5.15456940881593   13.35711150738098
H        -2.90484165028027    3.49773245197622   13.86289893396004
H        -4.81140754609989    3.94848272813480   12.03398856741753
H        -3.93136859564814    5.88386645215318   10.39112611595363

