62
CSD_code = LISRAH | q = 0 | S = 0 | Stoichiometry = C23H32Cl2N2OPtS | MND = 4
Pt        1.39763620784942    2.10530732358796    1.75186754871009
Cl        2.35289757233739    1.22420117406572   -0.15722284566417
Cl        0.93702806125736    4.05478243379083    0.68041984973176
S         1.87123715064188    0.03426441289495    2.57237832628204
O         1.39613201769326   -0.27599405887259    3.91981589041483
N        -0.54530538350435    3.39457401994672    3.59524197978485
N         1.37942784136175    3.09223507235920    4.54746073466009
C         0.67302189779442    2.90012277798094    3.43588228073790
C        -0.75800169523129    3.94851685935517    4.92807436998312
H        -1.48696887729629    3.33671612894122    5.47087274813679
H        -1.14028445135263    4.96833240144826    4.86659461732874
C         0.64301154243586    3.87423754716166    5.53923209633472
H         1.10673936474123    4.86254182044660    5.63655384357646
H         0.65547625045939    3.39116794588480    6.51571027189657
C        -1.60506537122551    3.26755891657488    2.65690097664240
C        -2.19253380490579    2.01522751546224    2.45782142163514
C        -3.21002074879760    1.90314419122385    1.52222826007497
H        -3.66377579246546    0.93677709067752    1.35380408492600
C        -3.65898935947052    2.99953005384863    0.80129534777611
C        -3.08245455142395    4.23658973276354    1.04666461649189
H        -3.42868276530445    5.10015526919421    0.49779556930350
C        -2.05755093864224    4.39372543605315    1.96674113190942
C        -1.79561382053744    0.82349839696119    3.27897124975355
H        -0.71536539705000    0.70776255795231    3.34486174413611
H        -2.21673270161574   -0.08399263839250    2.85495371148930
H        -2.17964864143502    0.92791307583629    4.29469224174018
C        -4.73218557275429    2.85017865462090   -0.23262485774941
H        -5.35560374571766    1.98337920646008   -0.02676883615371
H        -4.27810318532538    2.71614330088618   -1.21448958090560
H        -5.35924039910640    3.73789871131716   -0.27231198310681
C        -1.46454409958099    5.74777220752713    2.20505289227502
H        -1.93614797557825    6.22754422186147    3.06424928762403
H        -1.62370427872308    6.38017012323272    1.33682664990521
H        -0.39451340349988    5.66855753138571    2.37436256737751
C         2.71490616679793    2.66713065967127    4.77071937983197
C         2.97217655497971    1.69437042755992    5.74334363372585
C         4.28191110982571    1.28584209924566    5.94556315311059
H         4.48282758429497    0.52876379894778    6.68989540603082
C         5.33474591773587    1.81192027587565    5.21059746490678
C         5.05555968848003    2.78422939501417    4.26286510707033
H         5.86344506275806    3.21121001141005    3.68661224105552
C         3.76092578928886    3.23024502434063    4.03161863452101
C         1.87963885301109    1.07299654249740    6.55812849315149
H         0.97556378967727    0.96270143031075    5.96662270700466
H         1.66802401022251    1.67052409375699    7.44639949868537
H         2.18532560463673    0.08389066329084    6.88773511085551
C         6.74158061736362    1.35704910430297    5.45298345151661
H         6.76363751172000    0.31963635622982    5.77860140315040
H         7.19831605577449    1.96454944786362    6.23479032337772
H         7.34304206160979    1.45964032557514    4.55304350320822
C         3.52862895974056    4.29218391936554    3.00403216994446
H         3.33047906489864    3.83558343165010    2.02717153577496
H         4.41174860297456    4.91737107826026    2.89955765676834
H         2.67643919863671    4.92020520142211    3.25156981519675
C         1.26347406290009   -1.31438313816351    1.51321040012792
H         0.18422368679653   -1.22416941105553    1.44796122007209
H         1.53544212590443   -2.25404239272755    1.97961530993040
H         1.71101112371255   -1.19739246446632    0.53384782848569
C         3.64231018457912   -0.36525391041884    2.52311364874530
H         3.77479380336053   -1.39805088905353    2.82246722396437
H         4.15179333311269    0.29748638444665    3.21473705506972
H         3.97835852916679   -0.19277687959938    1.50728841766540

