46
CSD_code = LISSOW | q = 0 | S = 0 | Stoichiometry = C22H17N3NiO3 | MND = 4
Ni        2.02111387423602    3.14884573704078   14.67816441586380
O        -1.29715457029617    1.13897436696447   15.00059334155589
O         5.93430366654186    3.53647755783016   14.45242833804180
O         3.75947364899459    3.37755015129504   14.09383208453228
N         1.86511064562180    1.63744965817232   13.52429086775911
N         0.19436145701152    2.91660217087806   14.98863024152557
N         2.18723985385190    4.45586950792576   16.04326313922604
C         2.74791210976504    1.11921364378131   12.67733968246641
H         3.63937824921790    1.70503302789494   12.49065350872172
C         2.54265467557078   -0.10825062298036   12.06430771734273
H         3.27989497646812   -0.49050625791667   11.37646444523960
C         1.39187710000196   -0.82651227632406   12.35063401292390
H         1.21332959507512   -1.78791642627671   11.89322913600743
C         0.47198947246492   -0.28168441007700   13.23139298390831
H        -0.44770784862915   -0.77894854856174   13.49737574041998
C         0.74282385201946    0.95699160997213   13.79275655258754
C        -0.24899701288939    1.66806941049310   14.67124004461602
C        -0.66711127041613    3.88546538823532   15.44496364725625
C        -2.04536745747227    3.82316222529870   15.17846479546389
H        -2.43528478683437    2.96898762156933   14.65096561036585
C        -2.90112518843809    4.82769704947647   15.56179203072753
H        -3.95170906939910    4.74919097886962   15.32552594407672
C        -2.42003559942085    5.94445534250247   16.23686917297935
H        -3.08971007139064    6.73771088447085   16.53094461720004
C        -1.07892081034904    6.02950944503078   16.52073577504505
H        -0.70242464902959    6.90299725235869   17.03069242485624
C        -0.17740358154560    5.02059075624753   16.14386767583182
C         1.21188122515271    5.16162961375975   16.52291795690813
C         3.51320175469252    4.66831897065452   16.62277132252061
H         3.41370678231765    4.81592377808682   17.70524503129775
H         3.95163078329005    5.57693005216845   16.19155484658450
C         4.45858154106853    3.49882111387318   16.35934674961565
H         5.37644122239153    3.61958014782406   16.93352648459946
H         3.97468744191061    2.55405279822585   16.63529835580969
C         4.79005532877937    3.46894793133084   14.84840291324299
C         1.48564040648094    6.18643703686156   17.56950568347420
C         1.16262111940723    5.93060068899969   18.89788203358328
H         0.71666527082592    4.98375018841634   19.16453724781588
C         1.41534668213665    6.88494430957467   19.86739398069265
H         1.16688356933492    6.67952101520379   20.89769544959749
C         1.97729890102948    8.10117405567159   19.51670049436692
H         2.16836848396383    8.84627776953862   20.27394254806757
C         2.28966949074355    8.36290660144471   18.19281015352659
H         2.72027163377276    9.31304411640676   17.91518581377872
C         2.05183646070369    7.40820720475715   17.22042976526818
H         2.28560064126805    7.61230736303043   16.18593522270952

