53
CSD_code = LISWOZ | q = 0 | S = 0 | Stoichiometry = C25H17F3O6PRe | MND = 6
Re       -0.78221554118687    0.59927346274169    3.74650577629155
P         0.16725878088373    0.47150895407165    6.05023102518089
F         1.65698480765166    4.70255791832560    0.45204610630297
F         0.68873452242769    3.00496166279200   -0.45744541549742
F         2.82575898126501    3.00898958022526   -0.18277685072196
O         1.64213237346160   -0.94851484747832    2.56011807733987
O        -3.19690576975130    2.24079138668411    4.80039968661143
O        -2.23081669919131   -2.13272771571910    4.13223054169949
O        -1.75100906562622    1.14181117156787    0.84783695325403
O         0.48046854289676    3.24007977564179    2.39535248221129
O         2.19993405079777    1.81666416679169    2.16476641306726
C         0.81929061481477   -0.29869424959940    3.00221190264528
C        -2.33083237953048    1.59252346565354    4.44421745156929
C        -1.67392260827889   -1.14708085583097    3.97190813064615
C        -1.41490686302128    0.92051418023935    1.91518143814816
C         0.15750195521794    2.72095946102752    3.71082440141031
C         1.48841565229552    2.70964835361773    1.77542436593282
C         1.67072841469823    3.36494992777457    0.37967710181831
C        -0.04190286464159   -1.13257417119117    6.89323848975173
C         0.34042048472892   -2.25850074899118    6.16795723916433
C         0.27555341683130   -3.51295100166835    6.74206247433884
C        -0.17198417778675   -3.65175492224199    8.04641177539854
C        -0.54391805657603   -2.53399521722499    8.77390183455508
C        -0.47613461896780   -1.27363032357006    8.20552138863826
C         1.94786164094733    0.70291781035760    6.35286270909942
C         2.39580676795475    0.64527817581786    7.67280469838865
C         3.74164589136881    0.77616871128318    7.95055940420527
C         4.65094665314187    0.95711307369990    6.91826663859634
C         4.20938839821700    1.00654924692237    5.60803371624517
C         2.86013654748482    0.87754227376347    5.32086506420410
C        -0.62083055109180    1.68359758044286    7.14803287868029
C         0.02076808642244    2.85647773412423    7.52859050201747
C        -0.65624783983188    3.79452315358977    8.28844777724412
C        -1.97094546567801    3.57259115296948    8.66252655949014
C        -2.61955235996592    2.41177365348471    8.26955941307594
C        -1.95171315895856    1.47347095754589    7.50699566157907
H         1.08660707187829    2.75918756802757    4.29966201857180
H        -0.50248862750952    3.49868141614743    4.11427100210911
H         0.68892834125201   -2.13985692598916    5.14846653859675
H         0.57051361097910   -4.38185212852583    6.17325651292118
H        -0.22994540987210   -4.63159096934940    8.49587191965125
H        -0.88871887502823   -2.64134838930665    9.79185855301920
H        -0.76769742316634   -0.40739519246616    8.78283182130987
H         1.68562967799938    0.49949622364654    8.47573482744537
H         4.08492975505673    0.73426598255766    8.97376864827534
H         5.70306355707582    1.05754400901252    7.13931826384526
H         4.91145697272192    1.14551011208150    4.79998221284411
H         2.52996473727387    0.92365313490286    4.29367097445850
H         1.04482564998348    3.03359751033747    7.23086381326085
H        -0.15599498895404    4.70469734574592    8.58433108846923
H        -2.49519126621148    4.30836190244719    9.25360746635069
H        -3.64849604949797    2.24340282138269    8.55048470951610
H        -2.45548529755196    0.57143264163669    7.17977181670435

