37
CSD_code = LISXOA | q = 0 | S = 0 | Stoichiometry = C18H15Cl3Ti | MND = 8
Ti        0.78743629463461   18.39688999082648    2.64407508180495
Cl        2.76399012874542   17.61621642358224    2.38664267444427
Cl        1.00882189036714   19.66191111831605    4.36397158276670
Cl        1.01472432584480   19.99112728488105    1.19595178743093
C        -0.55241993800525   16.71303381888262    3.42073815446672
C        -0.14176620431753   16.38536839046113    2.10075876675760
H         0.39014112849145   15.48983227987269    1.80467221089416
C        -0.70148939826339   17.33927393776870    1.21804221105470
H        -0.64916459631662   17.31033701092601    0.13638425109644
C        -1.45028348105641   18.25963741548942    1.98427201793353
H        -2.06212929673827   19.06155307861692    1.59075399743039
C        -1.35506051353386   17.87940071131773    3.34217715412057
H        -1.90181125747810   18.32511006708712    4.16546091059321
C        -0.24400223649716   15.93061083292311    4.67211339534186
H        -0.65754565746160   16.48432612099248    5.52782123275658
C        -0.86483695163802   14.54570380702420    4.67976827288343
C        -1.83390504444960   14.16420797095237    3.76312703706248
H        -2.16312646832334   14.85918577904040    3.00435865088356
C        -2.38868886150106   12.89615606651937    3.81705622991645
H        -3.13957350977645   12.61110800135345    3.09530988895103
C        -1.98502040819540   11.99771248087313    4.78812540334880
H        -2.41664334343528   11.00877221646790    4.82682403944313
C        -1.02748030408864   12.37639196241283    5.71449970271436
H        -0.71116370256210   11.68400027518074    6.48034755399726
C        -0.47382943729100   13.64182546580300    5.66186857807858
H         0.27297618599903   13.93517891105599    6.38511666796245
C         1.26626674291581   15.87878268146003    4.82420216530568
C         2.01965522646690   14.91004998350349    4.16988403645360
H         1.52354537987028   14.14448161074814    3.58965906603194
C         3.39894564255698   14.90818504720149    4.27663690925393
H         3.97453127624207   14.15193217267313    3.76379368766841
C         4.04090699112234   15.87539425509644    5.03139949197126
H         5.11799152988420   15.87799429911401    5.10410867169521
C         3.29729533167169   16.83640758091199    5.69480616210101
H         3.79064281912785   17.58764078165748    6.29373832248583
C         1.91567423582772   16.83653120514456    5.59609544840270
H         1.33799548114960   17.57282896390675    6.14083858450884

