63
CSD_code = LISZAP | q = 0 | S = 0 | Stoichiometry = C26H32N4Zn | MND = 4
Zn        6.55658393114530    1.15121816091725    3.23260221463294
C         5.98079740564782    2.62325552387000    1.98048771881332
C         4.73555539060995    3.01922213910539    1.54786656960273
H         3.79789099217156    2.62391473830410    1.89672845368230
C         4.87280822970698    4.04346235804954    0.58457217377039
H         4.08104660298163    4.55893339677579    0.07408096279496
C         6.20947391844508    4.25117011089242    0.42627479256259
H         6.73323621379821    4.96387108474956   -0.18159868103706
N         6.87774924955514    3.40895006553612    1.27465697969528
C         8.26420921847427    3.35675999768269    1.38665407220039
C         9.06396302652041    3.46244594931805    0.24648018795337
H         8.59778130109009    3.58648860033438   -0.72040398918053
C        10.44035743668475    3.39307718058933    0.34748058003882
H        11.04560950083205    3.47211102564610   -0.54405035410169
C        11.04341275889606    3.21365741083978    1.58184621810562
H        12.11881126942047    3.15318806866657    1.65657398535961
C        10.25693458134778    3.12489632939554    2.71877861188572
H        10.71725087755430    3.00580737637036    3.68823431068334
C         8.87908940773199    3.20248618838575    2.62878817065451
H         8.27950091995123    3.17806360766079    3.52643625648872
C         7.26632084725844    0.98638103584554    5.11275617471978
C         8.51497166814383    0.66368961284807    5.59364254774538
H         9.39754595618359    0.52163875465745    4.99522801085843
C         8.46895456106227    0.56623593104404    7.00224977493076
H         9.28683509407349    0.33911656713032    7.66003172755833
C         7.18058116038644    0.81532386120946    7.36692243146734
H         6.73475744443673    0.87409539593593    8.34138725579676
N         6.45833950669497    1.08232772868074    6.23439435882389
C         5.10140468767993    1.39302420873373    6.23153084977758
C         4.22680183816241    0.72416435003502    7.09080856646764
H         4.61210804242088   -0.03347884536780    7.75801217753063
C         2.87582650747203    1.01459296489694    7.08008079294989
H         2.21087758811888    0.48567698352956    7.74754825363116
C         2.37225158087522    1.97080634629025    6.21316674310856
H         1.31524507650239    2.19072973996227    6.20283961926549
C         3.23659740506908    2.65014177130384    5.37030499390612
H         2.85821356646711    3.41241559582835    4.70575899831187
C         4.59137930003513    2.37292893077377    5.38038932168274
H         5.26111432947349    2.94108926401581    4.75240511161987
N         5.04740483615490   -0.69107398634579    3.12667727992764
C         5.10703491497501   -1.50545575723768    4.33465882991483
H         6.13868260188616   -1.72878599248634    4.59305145518246
H         4.55568833401867   -2.44815257884103    4.20975337990075
H         4.66600610187860   -0.95284247700538    5.16046848576736
C         3.66766920148966   -0.27130294260233    2.91240726234967
H         3.33509022423681    0.32223980359317    3.76188815681163
H         2.99591435239879   -1.13333822413104    2.79754718356493
H         3.60905489371316    0.34393305476022    2.01789191141707
C         5.51153676812853   -1.45489292054938    1.97150833277583
H         5.18432684045754   -0.93479536499479    1.07001558195224
H         5.05983083381989   -2.46093478922188    1.96314425885080
N         7.71190834865891   -0.32407192311692    1.75661339356824
C         7.02923549595706   -1.60215219445332    1.94036650705634
H         7.36616517618246   -2.03106171987752    2.88523831983368
H         7.29834913646374   -2.30631378881445    1.13536419286827
C         9.12184273544087   -0.47077290524043    2.09794234550191
H         9.62119287520685    0.49019010120491    1.98992343247041
H         9.62062742553301   -1.20439849753483    1.44944216893294
H         9.21441599345439   -0.79313802146866    3.13215810454284
C         7.60890458411234    0.11522627432932    0.37004471817101
H         8.20970021668587    1.01091435192612    0.23321954928380
H         6.57935985005389    0.36075841565704    0.12365643590642
H         7.96976986600116   -0.65795742796631   -0.32292823137035

