123
CSD_code = LITBIC | q = 0 | S = 0 | Stoichiometry = C68H50N4Zn | MND = 4
Zn        6.60647484527764   10.57602899174320    6.18141513208566
N         5.02755209520072   11.24420178659250    7.17623793215106
N         5.65754919231304    9.92834202349869    4.60514542103963
N         7.03476353630304    9.32393699043053    7.65727342000722
N         8.27354347168338   11.58799187111919    6.21599497417977
C         4.95267462857389   11.78367724071662    8.38120482618172
H         5.78391565484597   12.32871157162281    8.79328081521428
C         3.69626471738165   11.56254198079646    8.97713236401741
H         3.38943603797956   11.90206367971361    9.94766483035089
C         2.96516998514913   10.84309571887036    8.06724918457185
H         1.95890454685984   10.48271060292454    8.16398124421569
C         3.80598225624995   10.64684491684090    6.93390263603923
C         3.44776155959099   10.06051240881611    5.72744088418248
C         4.27945445368747    9.90659832012886    4.60434784680698
C         3.79691284721669    9.77835347228493    3.28431637246161
H         2.76106219488679    9.75570979590285    3.00657841110733
C         4.90716032421890    9.79350376027298    2.45844573475241
C         5.05132236557368    9.89182330368053    1.04141610274415
C         3.94190087907266    9.87472090535599    0.19082609014108
H         2.96221655826459    9.71479516662681    0.61532974229098
C         4.08893088821600   10.06542867704203   -1.16225741654987
H         3.22772190356669   10.05397151075032   -1.81420728165050
C         5.35913338445145   10.27983921278079   -1.68720792724676
H         5.48222309096678   10.43657220706691   -2.74919618769394
C         6.46209467145756   10.28776800710205   -0.86373853536534
H         7.42776456027011   10.44725138498004   -1.31642559745815
C         6.35021232578435   10.08716128736890    0.51904866268129
C         7.50511440911621   10.02655930489686    1.39932112428538
C         8.81405330258293   10.22753734935269    0.89845708937571
H         8.95250104988568   10.47710591027735   -0.14074640934649
C         9.91201297447821   10.16627356344672    1.69845210100732
H        10.89306039876659   10.39169582970095    1.30530156173628
C         9.80309889096372    9.73826824160617    3.03989160332162
C        10.93931566390092    9.51767607600068    3.83717598497431
H        11.90971426327374    9.78067142231945    3.44044158823658
C        10.82164028928000    8.94551941977978    5.07488451665663
H        11.70286539781962    8.76371953678993    5.67335659206301
C         9.56544438510406    8.53638342662272    5.53381710106259
H         9.48312260108321    7.99605918644281    6.46518531016415
C         8.43596832417865    8.79584424539990    4.79873583771761
H         7.48892597887764    8.39172861058157    5.12098486982224
C         8.51585554226603    9.46041763406861    3.56128933486473
C         7.36002417462348    9.76234152354047    2.77396692387598
C         6.04290569084323    9.81778830512542    3.31972847993741
C         2.04695254636443    9.58826953229635    5.58874711901064
C         1.78037068515961    8.22462939356633    5.73848841653651
C         0.47565050350165    7.77380556061210    5.62445387302752
H         0.26831963841984    6.71972335009991    5.74500486848810
C        -0.57237631179712    8.64518056672526    5.35996970007947
C        -0.28823798121611    9.99355506355157    5.21197328802753
H        -1.09198799699963   10.68613980641272    5.00424732647602
C         1.00634624991596   10.47950084316513    5.32602408648853
C         2.89097689696590    7.27025934579812    6.05793786743052
H         2.53265010070329    6.24376269393199    6.04961637073936
H         3.29292113550620    7.48949517910839    7.04764594315506
H         3.70200560742134    7.36673607128619    5.33753910933095
C        -1.97266027484443    8.12574500623602    5.23679011780439
H        -2.25105175763302    7.56727006330341    6.12936800205475
H        -2.05152196239844    7.45071104608054    4.38506898646459
H        -2.68022988955412    8.93946033415155    5.09988670211631
C         1.28663248569181   11.94107441531892    5.15454668868147
H         1.64877681779641   12.37032162203786    6.08828679182012
H         0.38791982165167   12.47404160669611    4.85348067001218
H         2.05710263259081   12.08811848530669    4.40053317696800
C         6.29543885084713    8.37140566228157    8.20011095124870
H         5.54091456484348    7.86434199570303    7.62443396203327
C         6.64823953060168    8.13526369534475    9.54261733341011
H         6.19860290229635    7.41223197760441   10.19561737907327
C         7.67110995600062    9.00349957864228    9.82532391346991
H         8.20046678298638    9.12294580163872   10.75123802481680
C         7.91308030538015    9.74834609059673    8.63513478896854
C         8.93081075229355   10.66931633609985    8.42590445561953
C         9.17845702529905   11.37012837249285    7.23249511169616
C        10.44051233256662   11.89379887410109    6.87921122906296
H        11.32246641166560   11.83873710623030    7.48729618225153
C        10.31603155872915   12.37839649612059    5.58900870247034
C        11.27519369186423   12.83971097308309    4.63735071844024
C        12.62591546360195   12.97969929646047    4.96985886825808
H        12.93314281688989   12.79898575637294    5.98893298628780
C        13.55240452980494   13.33326839331508    4.01831320642334
H        14.59515533623185   13.43707737246439    4.28050409206055
C        13.13671968064516   13.55138274487923    2.70889038887516
H        13.86004594184549   13.82376261611534    1.95381209426265
C        11.80849433656372   13.42885509687417    2.36904680493350
H        11.53101606178443   13.61806155699406    1.34430775110802
C        10.83535639321315   13.07957023213116    3.31554316630185
C         9.41942686559580   13.00782862097051    2.99560618530719
C         8.95807550401795   13.23670907989083    1.67676609725043
H         9.67057634232288   13.41892382733696    0.88902296335861
C         7.63830456774557   13.18526667827561    1.35297437325165
H         7.31843346576695   13.29519491357530    0.32660332581000
C         6.65422912608818   13.05883711452726    2.35802329483522
C         5.28365800256094   13.16031994159128    2.06384212627246
H         4.97987163996142   13.23492947145306    1.02925031473157
C         4.35638902439548   13.20257651036980    3.06958636048610
H         3.30607650581925   13.29806162117118    2.83400462363764
C         4.77767360095515   13.18857340274955    4.40314453128621
H         4.05681950280721   13.32167578876868    5.19613385981779
C         6.10499511478040   13.02967938938023    4.71351978283994
H         6.42348125711990   13.11548270647974    5.74077335676720
C         7.07295092511577   12.89643965040436    3.70128013778628
C         8.46320537516831   12.71354189783962    3.98531191058531
C         8.94136244533702   12.23270296718356    5.24063319292212
C         9.87349721869849   10.90973270455039    9.54749900521800
C        10.90629863825053   10.01337886436111    9.82833056050429
C        11.75956880396009   10.27658085961696   10.88863091446939
H        12.56237103676945    9.58474162306606   11.10240818206416
C        11.60718977550678   11.40541336409966   11.68095158166854
C        10.57292965539609   12.28206439254404   11.38943017662068
H        10.43869663399853   13.16524504687791   11.99814798351944
C         9.70541565687858   12.05227760148845   10.33269381699023
C        11.09868458349635    8.79201049196520    8.98250123367015
H        11.17205981809942    9.07141598136789    7.93350333648675
H        10.24851072583719    8.11885076007832    9.08872747318803
H        12.00118295299127    8.25947079707723    9.27279552519856
C        12.52394570306280   11.65537998258249   12.83967797591580
H        12.15623415485551   11.13351216902413   13.72395446442937
H        12.57638586499900   12.71636998195646   13.07194345320216
H        13.52601294446054   11.28937798021478   12.62756150237430
C         8.57579139724046   12.99780124537743   10.05653966552417
H         8.64330354628408   13.87686278964255   10.69281581360719
H         7.62387660999556   12.50210209346020   10.24969388098200
H         8.58355452834991   13.31493529649058    9.01471251061993

