78
CSD_code = LITCEZ | q = 1 | S = 0 | Stoichiometry = C31H39O5OsP2(1+) | MND = 9
Os        8.96547336014040    7.84711971652168   20.46470175279164
O         7.23656832103783    7.44357579948616   19.56345962486632
O         7.78736656967301    6.32590450413303   20.05757592378192
C        10.07989291122064    8.95733750998294   22.05977006106538
C         9.98457648859711    7.60739355613106   22.52996755589990
C         8.59730315362330    7.29633212787915   22.67804911255435
C         7.83200495022226    8.46790213849873   22.36905623845563
C         8.72953339617459    9.49080630325153   21.97786613123807
C        11.30160932043290    9.82374781649906   22.12349999042502
H        11.17990413843144   10.54168049291096   22.93592543166348
H        11.44763900055492   10.38028074591983   21.20070270050356
H        12.19250805390903    9.23571244490810   22.32692909177201
C        11.12143810703655    6.77323762171326   23.02517222612939
H        11.33107411704692    7.04448810833584   24.06154865932327
H        12.02631720784385    6.93249712412383   22.44341130582077
H        10.88309058869547    5.71351215905226   22.99355003553217
C         8.00513434409436    6.04162756623209   23.21962306823789
H         8.75918754415887    5.27354779192436   23.36629047150418
H         7.24563414205135    5.65865849510052   22.53715060261971
H         7.52096511287867    6.24842607522708   24.17470679708480
C         6.35196941643962    8.55973881112785   22.51891521909587
H         5.98621061251039    9.54912506896667   22.25796468691284
H         6.07143531638202    8.34292638906218   23.55004646754538
H         5.85608357992698    7.82700527692016   21.88093850947118
C         8.41209490783005   10.93793786898345   21.78904589608378
H         7.40206605245808   11.08069639142346   21.41208508637891
H         9.11205475721189   11.40554937820744   21.10011726178760
H         8.48963242282805   11.44932814291873   22.75071151090586
P        10.32227496679070    6.42870885151179   19.12973874932428
C        11.80511289450976    7.21110024267718   18.42200317159286
C        12.58294177645223    7.99282144301618   19.27100954696671
H        12.29646687309771    8.07646443039012   20.30880593034518
C        13.70229529612600    8.64769275210217   18.79372637217616
H        14.30413698072522    9.24773766271357   19.45961167351415
C        14.04905588987007    8.53383317914766   17.45616982248188
H        14.92000690882313    9.04706659156903   17.07816564023429
C        13.27559339261880    7.76118063737118   16.60537143855293
H        13.54601304788624    7.67156081278874   15.56378932633164
C        12.15535522362292    7.10097462425902   17.08187660095384
H        11.55247855268702    6.50549824081475   16.41287751690778
C         9.58967883408714    5.49596600094710   17.74901161083515
C         8.38675391358886    5.84853510382451   17.14922212750558
H         7.82432277853019    6.69009073883602   17.52448809676417
C         7.90022858985963    5.10092967821441   16.09011937785431
H         6.96016418943237    5.36967232470862   15.63185452266892
C         8.60785554890919    4.00614828909977   15.62222214691251
H         8.22329499071399    3.42541952089612   14.79776884830057
C         9.80720640352205    3.65096378969238   16.21939782090527
H        10.35900492515678    2.79497269050000   15.86155001237486
C        10.29761272888822    4.38838353786657   17.28075599971316
H        11.23077093142189    4.10730647881096   17.75025776839250
C        10.96093787801356    5.07582774231474   20.16288479802748
C        12.31559853883297    4.85249637995188   20.38239431571347
H        13.05378672129235    5.50076869184173   19.93276292070036
C        12.71760408011405    3.78549736310601   21.16876252036348
H        13.76980993480791    3.61023776383180   21.33425320943897
C        11.77691133734545    2.94222723026170   21.73639233087536
H        12.09661073450604    2.11140177647292   22.34641190698814
C        10.42477505819962    3.16218794784739   21.51691272915365
H         9.69202954364700    2.50076579472019   21.95422620432930
C        10.01535713518378    4.22553277955080   20.73436937369370
H         8.96627468453169    4.41180054230014   20.55104005587411
P         9.30576540690507    9.42830705065415   18.81248539160432
O        10.56230034140105   10.39187578338628   19.01213695973745
O         9.53485800129086    8.63091921568728   17.43042205338053
O         8.19739246323725   10.53321421369719   18.46451719040964
C        10.98995656825579   11.38202022000359   18.07102409747883
H        11.46440889943529   10.90691615132606   17.21239913683295
H        11.72008450904919   11.99832560166837   18.59382820075329
H        10.15441057254870   12.00024713060730   17.74634305673208
C         9.35222072045734    9.15145866954377   16.11129702962415
H         8.96779718271776   10.17167659984120   16.12849114707699
H         8.64949445325086    8.49963703372007   15.59039080579495
H        10.31343841892149    9.13101938562412   15.59607004156901
C         6.80727745569869   10.23726459424462   18.31044416443700
H         6.58154853956717   10.05041325042888   17.26009786604017
H         6.26222669209883   11.11735995814965   18.64966641384722
H         6.52263059795067    9.36557808201865   18.89760053846503

