105
CSD_code = LITDIB | q = 0 | S = 0 | Stoichiometry = C44H48Cl2O6P4Pt | MND = 4
Pt        0.00006767783951    0.00002462430277   -0.00004788502192
Cl        1.05864468705599   -0.40721454316349   -2.04553889257363
P        -1.76357705223881   -1.28043373158863   -2.91204624169477
P        -0.87298824904179   -2.10393966840685    0.03018825394609
O        -2.00359879147428   -0.23728059275859   -1.90228468014257
O        -3.08544875533310   -2.14684485150602   -3.21787055621086
O        -1.47984423730704   -0.69495795304560   -4.37622779129645
C        -0.21810059850071   -2.97986553531154    1.47914534031705
C        -0.99704578375219   -3.66286784759213    2.40307450767363
H        -2.06599105285433   -3.73459602219780    2.26081550289707
C        -0.39896325959820   -4.24246153324992    3.50961851672901
H        -1.00535997950454   -4.77323492812479    4.22931823387498
C         0.96920434425208   -4.14171354666336    3.69782485157507
H         1.42845825578339   -4.59663030061379    4.56340256496692
C         1.74840168915375   -3.44849138807101    2.78336562431606
H         2.81317646015410   -3.35547902878169    2.93740850302680
C         1.15655511873020   -2.86155773691997    1.68182679598254
H         1.74681720687769   -2.29002713892432    0.97488301113725
C        -2.65653962084335   -2.43937285740465    0.05607807959237
C        -3.55026943553993   -1.44758402170553    0.43931871080527
H        -3.17316002362926   -0.47137627295680    0.70620229529862
C        -4.90735918492880   -1.71653147957732    0.46890788421734
H        -5.60243983270675   -0.94321020448749    0.76171146489711
C        -5.37558377231387   -2.97337537542653    0.12368193938585
H        -6.43587529478787   -3.18137392454632    0.14597578171782
C        -4.48447513127433   -3.96586978164650   -0.25440859835787
H        -4.84825462797406   -4.94759532655207   -0.52333610804714
C        -3.12800394202656   -3.70231443522434   -0.29183270145413
H        -2.43268293048194   -4.47497553537085   -0.59191542521880
C        -0.34037303611722   -3.13840698503801   -1.36692398269334
C         0.44019800768401   -4.27984953203688   -1.22389888139689
H         0.71770213139337   -4.61976390043081   -0.23585180766891
C         0.86064844080802   -4.98365336511169   -2.34019171937587
H         1.46295589237533   -5.87172127573574   -2.21524107718709
C         0.51624142084625   -4.55030337249848   -3.60944073583681
H         0.85001864271247   -5.09755275767601   -4.47857483568004
C        -0.25668253447596   -3.41166810813648   -3.76158747539256
H        -0.53510409069098   -3.05238320758730   -4.74002033099389
C        -0.67732131192358   -2.70721790895848   -2.64823954879372
C        -4.31310098019143   -1.43868341097910   -3.33949160799499
H        -4.24990987946429   -0.75348177575983   -4.19221554371214
H        -4.47212321049536   -0.84698520359602   -2.43140910427205
C        -5.43312204514804   -2.44283810516076   -3.54042192778659
H        -6.38126801737995   -1.92193722073575   -3.64172187898991
H        -5.48136050852979   -3.11469816015666   -2.68817772040640
H        -5.24835946138289   -3.02866836900381   -4.43684797343147
C        -0.78683064625346    0.52462534831405   -4.61240613368227
H        -0.61304506821786    1.03636319178343   -3.66336477575586
H        -1.44617160754665    1.14251685811314   -5.23188006518267
C         0.52561214274216    0.26326832371651   -5.32992908711504
H         1.00251688238832    1.21110917704695   -5.56356472449885
H         0.34772589683129   -0.28690693537841   -6.25076912621003
H         1.18543865846198   -0.31488097720372   -4.68901425158856
Cl       -1.05777871548054    0.40753085068663    2.04531038999971
P         0.87297730864542    2.10397231831983   -0.03010119953136
C         0.21811005553881    2.97977476827408   -1.47914241550601
C         0.99704350228034    3.66282073210759   -2.40305274472175
H         2.06597867933951    3.73464526641503   -2.26074481019511
C         0.39896359807822    4.24246621377503   -3.50957220688612
H         1.00535398622541    4.77328783177783   -4.22924692308150
C        -0.96920009881221    4.14169793388077   -3.69780300368888
H        -1.42844699781128    4.59659018704574   -4.56340097450394
C        -1.74838907569567    3.44843652094713   -2.78336709893929
H        -2.81315751731903    3.35538439586320   -2.93744444827454
C        -1.15654493468941    2.86147376663571   -1.68184044152829
H        -1.74681802286200    2.28993329393362   -0.97490957297261
C         2.65652463657082    2.43937660268311   -0.05608303939903
C         3.55028741144328    1.44759273529040   -0.43925985807109
H         3.17321761471040    0.47135931744277   -0.70611332761774
C         4.90738002458715    1.71655247892773   -0.46881095928574
H         5.60248768134930    0.94323444640548   -0.76156515987382
C         5.37557495572395    2.97341721314898   -0.12361642153702
H         6.43586407622003    3.18143183372428   -0.14588899886442
C         4.48443371066643    3.96591477077669    0.25438274008505
H         4.84818842184022    4.94765518356833    0.52328825199745
C         3.12796554763313    3.70234491816178    0.29176303921415
H         2.43262366654220    4.47500024491901    0.59181851973476
C         0.34040799283715    3.13848930718060    1.36697174297392
C        -0.44014782306503    4.27993131050391    1.22387966130844
H        -0.71760051755318    4.61981249376901    0.23581612618588
C        -0.86063151075383    4.98373506331676    2.34015089939697
H        -1.46287311686124    5.87183282884032    2.21514650658965
C        -0.51628323885744    4.55038052845266    3.60941151484765
H        -0.85007209142769    5.09764818015023    4.47852325726292
C         0.25661024186608    3.41173432215501    3.76161664681343
H         0.53495304771189    3.05241510903544    4.74005278411611
C         0.67726708139893    2.70726636402459    2.64829267471136
P         1.76347838385605    1.28044567867974    2.91206712788592
O         2.00347672025921    0.23734433418858    1.90226635216944
O         3.08534421692647    2.14685518872466    3.21790280670281
C         4.31300341009646    1.43868281832743    3.33946822709625
H         4.24983188662232    0.75345236073282    4.19216926473022
H         4.47199531942300    0.84701174558864    2.43136232330307
C         5.43306690377059    2.44279132073699    3.54041405296902
H         6.38120633343755    1.92186118617633    3.64164811713980
H         5.48130204702244    3.11470120146422    2.68821087785196
H         5.24837365682789    3.02858105394096    4.43688058995082
O         1.47981302697875    0.69490219850362    4.37624483488506
C         0.78682810462737   -0.52470435861138    4.61237993906807
H         0.61303647626685   -1.03638948540840    3.66330919455339
H         1.44619027275482   -1.14261578912714    5.23180641289714
C        -0.52560448052565   -0.26341021857181    5.32994330452953
H        -1.00246916102031   -1.21127205770243    5.56357655049620
H        -0.34772047856688    0.28677400834984    6.25078027256860
H        -1.18547182095589    0.31471809160817    4.68905393375501

