50
CSD_code = LITFAV | q = 0 | S = 0 | Stoichiometry = C19H23ClN2O2PtS2 | MND = 4
Pt        3.29818961506864    2.01914227047064    1.05282623372898
Cl        2.46781892314725    0.30641525583275   -0.21952999245011
S         4.12322788520954    3.74482930396249    2.35631040857422
S         3.34161768496772    0.67127944199440    2.82801676814822
O         3.20745166707083    3.17407248957974   -0.60969022966862
O         4.35698564536665    0.93441520577301    3.83006761113137
N         4.06651505911229    5.24635166480574    0.05168546192227
N         4.50033296871923    6.30779424772388    1.99096998395738
C         4.21348132688629    5.15381734314764    1.36453883177070
C         3.65076229230769    4.34215221583863   -0.81091007120969
C         4.63007290958616    7.52714226245550    1.21573667623977
H         4.42522391458665    8.37208823939589    1.87683745395541
H         3.87336007897955    7.50284030195031    0.42928018035787
C         6.01294574522992    7.67380315738326    0.58570796115495
H         6.03907275944052    8.55819471065511   -0.04548412825872
H         6.23099939753354    6.79972941326335   -0.02137163083098
H         6.78102578484799    7.77250542320046    1.34786994245256
C         4.79006406696554    6.35249107515648    3.40762961190555
H         4.63486470603831    7.37895377792519    3.74703426548591
H         4.07860476245530    5.70381214687026    3.92735185744907
C         6.21016583542032    5.90340015165540    3.74670215819248
H         6.35582846235081    5.94637891326891    4.82231065631026
H         6.94651272346577    6.54332285043400    3.26887345129155
H         6.36881910677868    4.88041431022786    3.41906597500530
C         3.34598487267164   -1.12480121118479    2.53643426075374
H         2.56567551975861   -1.35407226286152    1.82071180863293
H         3.18423776684774   -1.61007184236205    3.49217317256669
H         4.31778530409891   -1.38852133201620    2.13361698432152
C         3.67214419131826    4.79148338906207   -2.22638542685573
C         3.25784765398202    3.91197676631065   -3.22515403475971
H         2.92909687711106    2.92226358018093   -2.94697124552268
C         3.27155886576683    4.30928783422088   -4.54850434901349
H         2.94895780392952    3.62461475628078   -5.31871704706474
C         3.69904860893994    5.58307868881835   -4.88750247865745
H         3.70902665115969    5.89275889973014   -5.92233533871007
C         4.11499755885759    6.46025843758094   -3.89789460611975
H         4.44961005594152    7.45270930543682   -4.16279745960568
C         4.10216866436613    6.07007030573088   -2.57261004371976
H         4.42341354378424    6.74278332851702   -1.79495267339281
C         1.73718035808269    0.80793390630886    3.62870083865178
C         1.66120944287533    0.83025013308022    5.00853425320894
H         2.57438539930071    0.76927570156604    5.58096030240843
C         0.42133691191370    0.94466498639506    5.61420460407042
H         0.34734508776080    0.96234960400159    6.69114468707793
C        -0.72123738921831    1.03904746070056    4.83534565706575
H        -1.68707754521999    1.12944739627656    5.30977141032712
C        -0.63195496413717    1.02548201521153    3.45149584849580
H        -1.52454021782461    1.10480838988235    2.85002404648962
C         0.60482323502443    0.91358774584052    2.83919165896939
H         0.69713242138980    0.90138784434086    1.76038573375550

