53
CSD_code = LITGIE | q = -1 | S = 0 | Stoichiometry = C20H24CoN4O2S2(1-) | MND = 6
Co        6.41550674987427    8.95386858439607    2.00262549226546
S         7.75721042119970    9.32271664678913    3.82620111048315
S         6.35552919882189   11.13000289570330    1.28008241980623
O         2.70516005741544    9.02513512154844    3.40848089657553
O         9.26603874597907    7.22303645427136   -0.14842208335328
N         4.99385828681921    9.12839691528773    3.22549126136060
N         4.98586302040940    8.61329576378056    0.72813200504873
N         7.82290199300968    8.76045196018000    0.76652761852639
N         6.71984264924913    7.05762151949922    2.31072174968923
C         6.48378811749190   10.01705850199187    4.96490640328980
C         6.92389476835523    9.70526304166475    6.39311551640389
H         7.87329399237556   10.19357465489452    6.60041266897119
H         7.05756021319336    8.63322590458771    6.52372571894162
H         6.17738741318191   10.05989176684126    7.10428492400646
C         6.38634679206828   11.52344792063938    4.75749099917987
H         5.66817825389224   11.95698048378341    5.45483187391198
H         6.06663796536563   11.73515478182387    3.73952711571642
H         7.36009167003400   11.98281402807908    4.91605992744773
C         5.15613348694053    9.33074007556909    4.64777126214157
H         5.12586963200378    8.35557008597919    5.16037767924462
H         4.30977397797220    9.92489102345710    5.01989372040655
C         3.76057842748334    9.00174540337254    2.76243564057331
C         3.77573657961203    8.76375803118448    1.28745300631508
C         2.60096121333165    8.67782328824975    0.55155425266120
H         1.66774548241448    8.81511050931051    1.07595413288284
C         2.67014305300669    8.42547187740638   -0.80391618268951
H         1.77553262612171    8.36552979386971   -1.40788055272652
C         3.92517074031136    8.24228424752508   -1.37272021661727
H         4.03415641096469    8.02625439989914   -2.42505523734919
C         5.04714541296171    8.34012445556723   -0.57207626194657
H         6.03310270587411    8.18968541419646   -0.98945308424753
C         8.00747741269740   11.19085444367329    0.46347806846506
C         9.06565215109114   11.57588634110816    1.48981548101756
H         9.11347538925875   10.82028501525792    2.27091781591251
H         8.80837832128274   12.52920018744828    1.94719770464388
H        10.04340303700883   11.65948039579629    1.01348829104051
C         7.93672541488770   12.23786391044094   -0.64526520402883
H         7.73549708049022   13.21634217356435   -0.21513380301254
H         7.13379489607731   12.00058482018220   -1.34044241076835
H         8.88018793675639   12.27488544222351   -1.19068544238748
C         8.28405767936744    9.80608144865413   -0.11900683843178
H         7.76784450891991    9.71632840918694   -1.08847390500077
H         9.35830236609097    9.66631710619599   -0.30369888241062
C         8.38248832750246    7.56703912745843    0.64735135611567
C         7.76697039986325    6.60128589202132    1.60689436057761
C         8.24107308380825    5.30237567429703    1.73728399788825
H         9.08952718935166    5.01400794898349    1.13579734952952
C         7.61897645605429    4.44176266521048    2.61941825996283
H         7.97088427859081    3.42848831212033    2.75401064999865
C         6.51940403113576    4.91233984413352    3.32775782892041
H         5.98818904243058    4.27605332446905    4.01983209746986
C         6.10549724152260    6.21701081181815    3.13826945562469
H         5.24585369804748    6.60200115442319    3.66905999195094

