33
CSD_code = LITJAC | q = 0 | S = 0 | Stoichiometry = C16H12Cl2HgN2 | MND = 4
Hg        5.50191979839849   -1.64106299982392    1.73358536931313
Cl        3.23350494948872   -1.71071209833364    2.02153134893819
Cl        7.54326669142561   -2.55357458972743    2.17396224280866
N         5.93489666874738    0.81381146289845    1.86623452156121
N         5.88737983589270   -0.60823523489496   -0.50783056922517
C         6.11067440050198    1.43316543768400    0.71296953410050
C         6.30033967941145    2.83157332188590    0.63181667380437
H         6.43945093157215    3.29252602385392   -0.33410208489493
C         6.30096320857348    3.57505830388952    1.77863877364701
H         6.44135557264272    4.64618007913896    1.75029936129730
C         6.11563579497510    2.93362540423583    3.01945835888901
C         5.93380391362516    1.51889205823864    3.01124542548432
C         6.10180158081707    3.61996439778297    4.24971595279261
H         6.23881132899900    4.69147049165855    4.24724122681222
C         5.91719340289719    2.93783580908948    5.42014395920340
H         5.90559840842904    3.46653114390215    6.36125477017690
C         5.74080167041520    1.54266031521003    5.41333332979957
H         5.59768672566751    1.02451567532400    6.34922547724966
C         5.74923541485585    0.84618473957858    4.23839746535714
H         5.61522689186564   -0.23141855121371    4.21804362481389
C         6.11061840094342    0.64540990625471   -0.51079304003180
H         6.29290407960837    1.20058725756472   -1.43501607444457
C         5.92935172448401   -1.38107663970562   -1.65914459111172
C         5.08642447256597   -2.49392507989637   -1.72238876854169
H         4.41091627356104   -2.68692257236129   -0.89626430603851
C         5.09571967601296   -3.30927597946424   -2.83547395340854
H         4.43381130600149   -4.16054913435869   -2.88178926481006
C         5.96256551839271   -3.04435989860034   -3.88557188628476
H         5.97948465136094   -3.69176232209257   -4.74906899083851
C         6.82090735193758   -1.95842021344632   -3.81729279532159
H         7.51194217189269   -1.76472462705714   -4.62415348601234
C         6.80492080017740   -1.12277087687857   -2.71736995888216
H         7.50388670386664   -0.30200101036415   -2.65083764619988

