71
CSD_code = LITMUW | q = 0 | S = 0 | Stoichiometry = C30H30N6NiO2S2 | MND = 4
Ni        4.11603459187145    1.65454908598502    1.10079618804722
S         5.69198958001268   -2.00248843022642    3.00994877361605
S         0.78134071476483    4.52839556256162    0.74660241088583
O         4.07063731443092    2.35971592655691    3.59496653153732
O         2.20438494002393    0.07771265810919    0.34016624550850
N         5.94410927648699    1.36587414278027    1.17394001733243
N         6.32754241364078    0.23748888894591    1.75816605922844
N         4.08828726949308   -0.00329985772044    2.07211538484272
N         3.93662061188556    2.67609078803348   -0.43360460161409
N         2.91109936117102    3.51844696488476   -0.44975723825746
N         2.50359510578178    2.58292937921296    1.58237593210834
C         5.31443749568465   -0.46515359426532    2.23014041975791
C         6.96831093776126    2.17083979111121    0.70963935817823
C         6.74985592903628    3.54736014529206    0.57516739650810
H         5.79670800256811    3.95515831370558    0.89120641513054
C         7.73986529409639    4.36222896378130    0.07022505613685
H         7.55917346867752    5.42167542382467   -0.03771959360794
C         8.96945561814687    3.82983088842834   -0.28812576215716
H         9.74193098001595    4.47029599705681   -0.68628819971963
C         9.20642498279152    2.47385427669398   -0.12183622486080
H        10.16683513591991    2.05846580658424   -0.39081323755912
C         8.22235626161236    1.64636966652978    0.37617655824916
H         8.38971040883120    0.58723870016244    0.49561806830712
C         2.91944027360335   -0.64153669328656    2.44448778408114
C         2.70174855098497   -1.26611536364177    3.66448776752648
H         3.49919798862430   -1.31080506687095    4.39029734178215
C         1.45927242461051   -1.80457868491062    3.95376006481416
H         1.29432529171787   -2.28270594815117    4.90698613368339
C         0.43485363379987   -1.72229222469241    3.03172674763357
H        -0.53500506866507   -2.13708033087338    3.26074975128421
C         0.63306053433275   -1.10374407557146    1.80348904743537
H        -0.18321028443702   -1.05073604862971    1.10040092283345
C         1.86660723834642   -0.56044514935708    1.50381272216353
C         1.19663284739489    0.28922180899657   -0.61908316292999
H         1.66611902181554    0.84452459073122   -1.43023210482890
H         0.37018310830032    0.87850139512315   -0.20811638876798
H         0.81152982562820   -0.66038346267209   -1.00523833055715
C         7.42409622911576   -2.19049761704934    2.50225201394257
H         7.77546454483580   -3.11249317633457    2.95423027104768
H         7.99382634417274   -1.34058308254997    2.86171368420270
H         7.47418908367861   -2.25316416045692    1.42015215909746
C         2.16529618102180    3.43904870171210    0.63666206239032
C         4.72095751169903    2.67546123468425   -1.57266367084943
C         5.45671449968402    1.52907241326425   -1.89672826538018
H         5.34960746640550    0.64961301682508   -1.27244294308630
C         6.28121350713787    1.52139306394383   -3.00092740370705
H         6.85137610652067    0.63520352520455   -3.23822245322501
C         6.37242827465445    2.64133880624851   -3.81404212156236
H         7.02155994349980    2.63327107876604   -4.67660365007357
C         5.61763483752453    3.76696076153420   -3.52123730662077
H         5.67930276245855    4.63702848014947   -4.15878149030671
C         4.79371611283339    3.79014716235891   -2.41590691584424
H         4.21330659410535    4.66552649944661   -2.16919361397100
C         1.87390070262340    2.42103716863921    2.80278417962620
C         0.50139570954157    2.33919061086551    2.99115689212035
H        -0.16009777411394    2.44529074336653    2.14505959401405
C        -0.01001736760058    2.09716290966022    4.25497367446439
H        -1.07792818489599    2.02781220765538    4.39359239140256
C         0.84158182639272    1.93636637402902    5.32981051239779
H         0.44199171066036    1.74144187617607    6.31340567798148
C         2.21854592744626    2.01755423317919    5.16300208582227
H         2.86322887208159    1.88680633567552    6.01782894683390
C         2.74134194371394    2.25637458542519    3.90750088477813
C         5.01353258056600    2.11850282233076    4.61143779698326
H         5.99189717881977    2.20965975807141    4.14108749076979
H         4.90461080914553    1.11147386107017    5.02763749842377
H         4.92750315854100    2.85719904728188    5.41522597750534
C         1.16523081068658    5.65652341950232   -0.62206920322418
H         0.34992417690907    6.37154150757550   -0.66507133064415
H         1.23139869476332    5.08782602997282   -1.54313717691340
H         2.10390814462665    6.16060556755668   -0.41672050216193

