98
CSD_code = LITRUD | q = 0 | S = 0 | Stoichiometry = C34H56N3OSSi2Y | MND = 6
Y         2.97876336771250    3.79606478447689   -2.92439356082382
S         6.92028848660596    1.77900986037283   -0.25834037995155
Si        6.07752482164843    5.08451025211487   -4.43542997336340
Si        1.68747692906790    2.61664135902302    0.32179897074313
N         5.04014636899390    3.23611977604954   -1.22363928120815
N         4.19818095066119    1.51299003809537   -3.17674293067489
N         2.08576255856143    2.44167213775566   -4.59485630609196
C         7.47292288938346    3.87626852556785    1.53708578942086
H         7.13156395400467    4.87164635628994    1.81024372358741
H         8.52256242803360    3.92843591171676    1.24908893752969
H         7.39709086419005    3.22529101675691    2.40765109659527
C         6.65024952412742    3.35287143563113    0.41894078658854
C         5.61310936285116    3.95065663560486   -0.23399165951922
H         5.23401272498451    4.93274482430121   -0.01028109520951
C         5.60714713832332    2.06901371053223   -1.37622318750628
C         5.20867782498809    1.11594402596825   -2.37786817936216
C         5.81991791546437   -0.12777781627214   -2.52185136955999
H         6.62416807705688   -0.41646270641660   -1.86237361841519
C         5.37175998561429   -0.97385093929325   -3.52180013239759
H         5.82116620615712   -1.94638324223734   -3.65579903920675
C         4.34139715888259   -0.55410515529740   -4.34796782359431
H         3.97365124770999   -1.18674166314266   -5.14108085890678
C         3.77632208120127    0.70264366195625   -4.14008886835689
C         2.67202488363878    1.20143087472847   -5.02797506036525
H         3.11364931793035    1.29964713686088   -6.04389774679618
H         1.91959164921988    0.39434635804545   -5.11598488969247
C         0.92799916845606    2.75893866783514   -5.32898622245403
C         0.99337937093514    3.65070387903977   -6.41720931123657
C        -0.15997661005436    3.95585224358663   -7.12358669068964
H        -0.10874398442251    4.63009608576447   -7.96684913181431
C        -1.37740293931236    3.39775940592261   -6.78131913084594
H        -2.26612937256375    3.63865337308998   -7.34675517696961
C        -1.44865129022504    2.52733104061612   -5.71011508896543
H        -2.40313430936153    2.09785733905753   -5.44098768547926
C        -0.31612845778513    2.19610390103145   -4.98113924222732
C         2.31448349570719    4.26109802448682   -6.82538322615401
H         3.05986159636992    3.98032513578419   -6.06996412638924
C         2.76024052627381    3.71658652799375   -8.18496218999392
H         2.83399293045305    2.63113244405841   -8.15848594809178
H         3.73353412483971    4.12256169369205   -8.45492760468765
H         2.04838025133521    3.98815027956975   -8.96206293730767
C         2.24135063378956    5.78834323733983   -6.85801692218103
H         1.89121485907151    6.15608033857453   -5.89740730943666
H         1.56581049433411    6.13660613069062   -7.63697013781289
H         3.22844154589756    6.20378802161360   -7.05303474249421
C        -0.43269888492104    1.27342778239922   -3.78872459629583
H         0.56799081974974    1.14550443792200   -3.36325794952371
C        -0.97428725160859   -0.09946014721234   -4.19253285037133
H        -0.37531627421182   -0.53038166082288   -4.99305598381949
H        -2.00127673424201   -0.02413729567169   -4.54252579509782
H        -0.95245181693365   -0.77758451855643   -3.34147779406010
C        -1.30819707234924    1.90016408548785   -2.70153789231243
H        -0.86277991071485    2.83229987742924   -2.35946126625052
H        -1.38534930351886    1.22407043689361   -1.85250196914245
H        -2.31029358526119    2.10474735770221   -3.07258134115672
C         4.43488127022353    5.55977622327100   -3.65387941566673
H         3.88238067884873    6.16316681530494   -4.38365741417814
H         4.63422200322023    6.22461979211410   -2.80209844621377
C         5.93735128348267    3.56862297264285   -5.60357676144046
H         5.48495376177124    3.83701763621466   -6.55257721703924
H         5.33308826389266    2.78348088832896   -5.15566818028203
H         6.91561780445205    3.14804737744924   -5.82014563540008
C         7.41668523329123    4.64265564907081   -3.13266466265719
H         7.32338838580014    5.25415792685895   -2.24090105680882
H         8.41514298344629    4.79503831945387   -3.53053897027077
H         7.34260330019200    3.60265127589106   -2.83121665863828
C         6.84751388704777    6.48599517988593   -5.50626581668972
H         7.09222868614418    7.35435683954954   -4.90226161681519
H         6.15540707693449    6.81220733935574   -6.27673492669659
H         7.75846965727059    6.16496703724747   -6.00251686100147
C         1.75772189105694    4.06934919629984   -0.87194850222288
H         2.16917367119177    4.93951649261350   -0.34335467273365
H         0.72773652999369    4.34427384393683   -1.13138272896763
C        -0.03769031130030    2.38589805521302    1.13700755833115
H        -0.80974123042721    2.24226450588933    0.38806843121977
H        -0.31152307516497    3.25863658388523    1.72173142491227
H        -0.06143105121013    1.52734828071888    1.80148309698965
C         2.11292365195323    0.94518850376130   -0.52774685048442
H         1.88892668252767    0.97774255684123   -1.59221228300248
H         1.55321538311056    0.11885784762700   -0.09897789567373
H         3.16878117435077    0.70894589697068   -0.42337924634480
C         2.91021370128423    2.80349658847031    1.78935386689466
H         3.93470212752511    2.88529898097257    1.44247884576711
H         2.85674974731833    1.94956525058296    2.45773991656941
H         2.69139309398022    3.69110669552240    2.37414919142078
O         0.96648473144054    5.83335869762303   -3.51631172061304
C         1.09370448098203    7.22251867243618   -3.24800270679676
H         2.13523490237607    7.50359690509496   -3.40354933286696
H         0.81974767634168    7.41920575089370   -2.20135060557110
C         0.11411524936903    7.93339803264347   -4.19950941929559
H        -0.38652330116424    8.75903959195095   -3.69762349810921
H         0.63566040025987    8.32820720775389   -5.06961999544456
C        -0.86635315933359    6.81874720644376   -4.60264873802076
H        -1.90364134357395    7.08513707376915   -4.41399662971998
H        -0.75811953871548    6.56620793302600   -5.65594120644149
C        -0.42152131789222    5.63365118788067   -3.73759337945132
H        -0.95372878169966    5.64394587616480   -2.77440081905369
H        -0.55393699732809    4.66809002785119   -4.22146154168452

