79
CSD_code = LITRIR | q = 1 | S = 0 | Stoichiometry = C38H36IrN4(1+) | MND = 9
Ir        3.78158288807452    5.51685102500511   12.08715163105749
N         3.99388522725268    3.90472853547189   10.68382266543445
N         4.16688649628967    1.53332021159407   10.62094197202346
N         5.19901085937973    0.72380707173611    8.57826159213922
N         5.44358901112404    2.68600307870518    7.53161907669052
C         5.24603435139868    6.56456314601137   10.95328811214861
H         5.32145270205771    7.56313402774081   11.38560162104077
C         4.95383896020952    6.55769197871829    9.52851301926506
C         4.95029157298673    7.77567758766070    8.84095707621783
H         5.18498960039319    8.67912704068995    9.38480645950380
C         4.68365408444371    7.84050586204921    7.48912461497653
H         4.69471724459401    8.79333616932458    6.98288411729181
C         4.41053184268323    6.67675215605874    6.78387899913805
H         4.21078924103326    6.71736190805376    5.72502015609288
C         4.38364564645833    5.46419588389789    7.44271160334834
H         4.15585125858429    4.56320317891151    6.89779386276767
C         4.62729204015935    5.38218952519838    8.81572280593591
C         4.49886022344002    4.07027623513057    9.44039961513004
C         4.86202315506443    2.90952800856176    8.74803070140009
C         5.62634024578746    1.40217501146590    7.47175956359230
H         6.06895341372588    0.90343897174313    6.63178176943844
C         4.70546443519409    1.66768626032327    9.41193984762689
C         3.83855470572465    2.66741981577361   11.18061091323608
H         3.40018737601807    2.59274790506804   12.16568476457341
C         5.26808301712736   -0.68942103833976    8.83096316284205
H         4.75316390528595   -1.24070758177119    8.04325167632127
H         4.78816602999164   -0.88519630681918    9.78808663753464
H         6.30818124871252   -1.01666271015568    8.87134964362994
C         5.98612352263879    5.52922015941449   11.64759326031597
C         6.79790677565910    4.49765436421306   10.97694516015251
C         7.47823271548689    4.79768985288435    9.79676395066834
H         7.41735968295910    5.79015230426392    9.37716680617315
C         8.24064281665323    3.83268608487615    9.16667318904754
H         8.75578175226546    4.07501768728169    8.25055676788832
C         8.33720112004622    2.55949209249834    9.70301247884830
H         8.92227010899263    1.80462191057507    9.20005126402389
C         7.69537868905262    2.26305073327792   10.89539930596102
H         7.78425009515211    1.27907664126621   11.33082724368709
C         6.93940963269301    3.22600940815317   11.53461790876900
H         6.43628065117128    2.99478058912454   12.46237760789122
C         5.68751842000697    5.44213717621401   13.00796637826009
C         6.20968080105607    5.39827815981865   14.21991694388860
H         5.60194412534321    5.09183841700663   15.06082191671893
C         7.58121995752108    5.77482738335468   14.55320508773506
C         8.47303441275884    6.26653951247576   13.60016597710436
H         8.14760145741567    6.39297374404384   12.57834769423143
C         9.76601304174694    6.59396912166692   13.95736152346872
H        10.44815439835656    6.97228743156734   13.21102492761351
C        10.18893397924015    6.44257368218892   15.26892991460602
H        11.19915199251021    6.70222862982137   15.54507700879668
C         9.30920221169140    5.96078731468460   16.22425956625247
H         9.63255939268049    5.84296218167315   17.24729338991916
C         8.01482214810775    5.63019192304663   15.87152936125927
H         7.33384994130838    5.25126243711007   16.62014394407359
C         2.21622617444001    7.20003734900410   12.16522047119561
C         2.88044773911680    7.02565640929971   13.42960502601398
C         2.47325253937747    5.74271101029403   13.97685747795710
C         1.74021023115088    5.07075335998054   12.98273303658588
C         1.61045608218726    5.96751044284580   11.83574290985848
C         2.14423421418908    8.45167495747156   11.35701481599763
H         2.25227740469459    8.24564344751956   10.29345207643528
H         2.91204491174863    9.16082576307079   11.65298675852731
H         1.17293324624015    8.92358553199786   11.50943149084600
C         3.52006050173117    8.11145912727042   14.23319522504898
H         2.78226120367428    8.54756946675570   14.90754613178216
H         3.90438494315465    8.90336238163967   13.59621088567903
H         4.34216760423011    7.72721420457519   14.83282836758217
C         2.66336735361737    5.30133678069488   15.38966392293128
H         3.46510686739708    5.85481573205354   15.86941058452881
H         2.87917024586513    4.23685789712798   15.45321931170363
H         1.74559059853990    5.48907591553580   15.94872250892116
C         0.98784254351866    3.79109269123556   13.15101423299368
H        -0.02912400919905    4.01349915917667   13.47808523147964
H         1.44916021606305    3.15675898837400   13.90439757545936
H         0.92066186852733    3.23802588857149   12.21639138131204
C         0.73674854305015    5.71329445724009   10.65198502452492
H        -0.28820843967673    6.00561592616954   10.88498990115257
H         0.73110028248869    4.65984634876764   10.38109773335673
H         1.06508250818628    6.29173486301183    9.79121166035464

