90
CSD_code = LITXOE | q = 0 | S = 0 | Stoichiometry = C33H53ClP2Pt | MND = 4
Pt        9.02100967719302    9.56130969798846   11.96818144113448
P         7.36604422062164    9.02819466734515   13.39890986099968
P        10.62556001341397    9.52639666482708   10.33901347526479
Cl        8.21785146647843   11.77420885714161   11.61824091253184
C         9.74068550320766    7.64189425130244   12.34613935874274
H        10.73465596025283    7.82145270290877   12.78952750673467
C         9.98440614397586    6.97451939553861   11.03016675920223
C        11.00871748215197    7.14231458982057    8.83259445908115
H        11.50542639273934    7.75180630207450    8.09593794752712
C        10.74015605639078    5.80599401129044    8.56014393504492
C        10.02214397682613    5.09526461541937    9.51678305302240
H         9.73959498819348    4.07013901116907    9.32769338786626
C         9.65636013681913    5.65931990772628   10.72526842231874
H         9.09945583539874    5.06350892954357   11.43326855790522
C        11.15520931466423    5.12737850773421    7.26406780175010
C        11.95429448078338    6.05328243381751    6.34265649904390
H        12.24975203141341    5.50742127659059    5.44886165101670
H        12.85831887096289    6.40895869429209    6.83233722030507
H        11.35660038324217    6.90642960144196    6.02958513790631
C         9.89747660526194    4.67092105082657    6.51161228389113
H        10.17334878053076    4.19817471255448    5.57127549651291
H         9.25798290515013    5.52429230370057    6.29500855989025
H         9.32456266682836    3.95679671406022    7.09660105727987
C        12.03207856460628    3.91145360475030    7.59506833995472
H        12.34549668877711    3.41418050486411    6.67945684411818
H        11.49557615561578    3.19125834300073    8.20644166919771
H        12.92095671316976    4.22499312520087    8.13903803013977
C         8.97435355423665    6.84577558096472   13.36405571454845
C         7.82097006286471    7.36052619651370   13.95564168613847
C         7.14122997155126    6.65467038186914   14.94265126530816
H         6.27001877419078    7.10493127691595   15.38913284288153
C         7.57553336629293    5.40667754747194   15.36161547791704
C         8.74347874807105    4.90842923324008   14.78532485108430
H         9.13668130801234    3.95422454009334   15.10349671329047
C         9.43531424974356    5.61419577737732   13.82167237067844
H        10.35867540695917    5.21084066989652   13.42940431843700
C         6.84924549836011    4.58909025296261   16.41844016656600
C         6.43541829937207    3.24308524173318   15.80685498450095
H         5.90025856694633    2.64565305658358   16.54183179957529
H         7.30054697889649    2.67672708035985   15.47348481187256
H         5.78251790811275    3.40295969299728   14.95097906205476
C         7.79113010019720    4.35308094440399   17.60723441029802
H         7.28219467350201    3.78192328572476   18.38077657032691
H         8.10737814950189    5.30392906184381   18.03144896350416
H         8.67845215748954    3.80282948772160   17.30701599370704
C         5.58815050661762    5.28425335089203   16.93909754791844
H         5.10547240726798    4.65008360908639   17.67990763727882
H         4.87643453170913    5.46101702378234   16.13559729232562
H         5.83089897226936    6.23047202688628   17.41744610759972
C        10.16673837119454   10.23976552443164    8.68775986656321
H        10.81878904093659    9.82037850535125    7.91196047718724
C        12.38632662237603   10.06301074548888   10.62519622556527
H        12.36483345393340   11.15843333085995   10.57255312217707
C         8.72196883352822    9.82200553991694    8.42524053732852
H         8.37575396571963   10.20722372113866    7.46754008868843
H         8.08319939936504   10.23204205600113    9.20967448928735
H         8.62415595305582    8.73608089202107    8.41997568694802
C        10.29169402512021   11.75975265533187    8.70365938165861
H         9.87037676048624   12.17695071098924    7.79018514420073
H        11.33017144172768   12.07795047628875    8.77276574028090
H         9.73938169167585   12.16711894725897    9.54932257717242
C        12.78574600564941    9.66332177000237   12.04316052972082
H        13.74508545120545   10.10365138702943   12.31102591505822
H        12.87260470735127    8.58030475161852   12.12404322219918
H        12.03439681366679   10.01210764602392   12.75489792126748
C        13.36671798378467    9.51825634407440    9.59452305944679
H        14.37146937496268    9.87752013082955    9.81407982741523
H        13.10630193759989    9.84198304909362    8.58905309876860
H        13.38087848334207    8.43004590549626    9.62142992675941
C         5.75302072319772    8.86474020276709   12.50170310840989
H         5.47749349317935    9.89213102988621   12.23192509820041
C         7.07641654685971    9.97833589568684   14.96072000229264
H         6.48321082929457    9.37530896595617   15.65912511497928
C         4.62486205906520    8.21822546845483   13.29459537154254
H         3.70305195101597    8.25078673026712   12.71505361537535
H         4.45036353530316    8.73669214761455   14.23550774880045
H         4.85542160244131    7.17541315177141   13.50300669017035
C         6.06525479878877    8.08921278360402   11.22264524217021
H         5.21209975178457    8.08957237645723   10.54685571532878
H         6.32574348406730    7.05707744712382   11.45599918879821
H         6.91748985097524    8.55008937059919   10.71034146503847
C         8.47146181152990   10.21424744205801   15.53757393838212
H         8.42515173826979   10.81101339867088   16.44682530792882
H         9.07887484190364   10.74821376702232   14.80206570461504
H         8.95950636750040    9.26594481331334   15.76520508636867
C         6.36964888430620   11.29635420262180   14.66586352371987
H         6.37066285985930   11.92985331917525   15.55167015695494
H         5.33686756352120   11.13459489501345   14.36323822961359
H         6.88579161578752   11.82412369298994   13.86500402568122
C        10.61923916788027    7.72802501346930   10.02673857172347

