50
CSD_code = LITYAO | q = 1 | S = 0 | Stoichiometry = C13H26Cl2CoN4O4(1+) | MND = 6
Co        1.90847359188503    1.60143863857430    3.33917582981100
Cl        4.91583120990015   -0.20280265981777    6.61148419257433
Cl        4.60285761211910   -3.25120132838700    3.56995169089177
O         3.03313615979619    0.76401311306080    1.87319053777262
O         3.43227464236943    2.48777745922311    3.97262400315216
O         1.35875049897685    2.57499171153304    5.64816465807888
O        -0.14920662391543    2.87225431748556    4.13927020368868
N         1.55470125293190    3.02949610385252    1.94585078167314
H        -0.51356469057877    1.09103185513691    3.04641840013261
N         0.32143341265432    0.73231050740992    2.57215579580917
H         1.48420884487810    3.98487844958786    2.29796072311796
H         2.35590152006485    3.00435125236333    1.31365100015549
N         2.07108498578206   -0.23215407791499    4.57174789001287
N         0.92186978346506    2.44880713879796    4.53682650356795
C         0.33036254757100    2.68470222054718    1.19390827139573
H         0.35617121297284    3.09178718318318    0.17982203213363
H        -0.52601465171627    3.10890553643931    1.72297425927227
C         0.21336353890478    1.16331244204673    1.17278738301046
H        -0.73140987174311    0.84485091299651    0.72154933628239
H         1.04376124968534    0.72819213755838    0.61341449088781
C         0.39465275527712   -0.70914492974169    2.80018998532893
H         1.15032266817048   -1.12882298098610    2.13455213525134
H        -0.56073772313999   -1.20455368624361    2.59432349143104
C         0.78065445054761   -0.90232178824753    4.26354299598578
H         0.82490968857358   -1.96711940320059    4.50682614033657
H         0.00393955651323   -0.45308728029691    4.88964467384427
C         2.18496554748939   -0.11662931777434    6.04570100141504
H         1.29332969218596    0.39351505433948    6.41636646791332
H         2.20216026032305   -1.12024734028554    6.48320477063052
C         3.36636987149661    0.69225321328809    6.56515971597729
H         3.15905845272612    0.98390395197986    7.59353162878938
H         3.52195092790526    1.58563852063476    5.96731551270679
C         3.20081429972400   -1.02754454048403    4.04020355940950
H         4.11225813728375   -0.44562083908756    4.17949091490351
H         3.04752252457254   -1.16514643072713    2.97141017713069
C         3.43855566560712   -2.41657558046261    4.64255919182081
H         2.54719020306385   -3.04130598506132    4.66831552329964
H         3.90137631084174   -2.37049132415302    5.62616062575583
C         4.91090898074585    0.10240359665983    0.58478745327760
H         4.14998814082291   -0.30502471143272   -0.07592598504106
H         5.47413850695710   -0.72373590556345    1.01724509142236
H         5.60387229634253    0.71703789692137    0.01733874019768
C         4.28024001046461    0.89204889251821    1.69645202661019
C         5.10510179450911    1.70247489566332    2.48192906832876
H         6.15480625915385    1.74464197160639    2.24919238813722
C         4.63829326129946    2.43939471608203    3.56381035006041
C         5.62255172950646    3.25021657849285    4.36164173339639
H         5.09473864224544    3.91342039892814    5.04153931156794
H         6.26634531896671    3.82675360729170    3.70349822781504
H         6.25023554381881    2.57622583566602    4.94256509888094

