114
CSD_code = LITYEV | q = 0 | S = 0 | Stoichiometry = C60H48ClCoP4 | MND = 5
Co       12.64147815146698    4.46556008487906   14.50450335072254
C        14.02443262666078    5.04561252006518   17.61043277966420
P        12.58486421024416    5.31144222969018   16.52816720097937
Cl       10.39618995189783    4.94632927210734   13.69587445588516
P        11.66186773439323    2.59792171501529   15.00988091357549
C        16.10801457001315    5.71389856713617   18.60158736258893
H        16.85191424642617    6.47602488941897   18.78417073033366
P        13.63754877689296    6.30837393804311   13.99411273942062
C        14.98755680751312    6.01921696882610   17.84933025799884
H        14.86256217188687    7.01537968243192   17.44742568335633
C        11.18234161408452    5.15036754151882   17.68271057656734
C        14.20970195799639    3.76263565195112   18.12235056093975
H        13.46392767551453    3.00457056775034   17.91877117093476
C        15.32798333976345    3.46131365754913   18.87377186710479
H        15.46017115872522    2.46391555062644   19.26841933359176
P        13.15480657864870    3.38865435663655   12.64456066976791
C        16.28157736689537    4.43915431224830   19.11393036140186
H        17.15977374131243    4.20576882744636   19.69807338050643
C        10.16274032710627    4.84318876685129   19.83268013620605
H        10.25436159946306    4.61981268463703   20.88640440337383
C        11.29485218515527    4.85971153232047   19.03695187036938
H        12.26167880342519    4.65547801433298   19.47517520567707
C         8.80545041520078    5.40858028090272   17.93817580674637
H         7.83776499504528    5.62301041210478   17.50950977473121
C         8.92021809190267    5.11890452890482   19.28811970725269
H         8.04176199532236    5.10817029557785   19.91704902207247
C         9.92985236097379    5.42339940140918   17.13648594334382
H         9.84784552066401    5.63508131981810   16.07821355717492
C        12.57881167136668    7.12708192991269   16.34786063403429
C        12.14051812349156    8.00943598525534   17.32644198305645
H        11.79370827598683    7.63248316590263   18.27864847743697
C        13.02527630691192    8.97543502468109   14.86740911098977
H        13.34952908321056    9.35530760841493   13.90847091080959
C        12.57990238604880    9.84908328060864   15.84434494849821
H        12.56835825783953   10.91133408292345   15.64735254320373
C        12.14538559421901    9.36946405696260   17.07073570652534
H        11.80074712480422   10.05922706095339   17.82735085321472
C        13.02557273415855    7.60991316938948   15.11830820269360
C        15.41525064182543    6.45593680958700   14.39556899110823
C        16.05015911956372    5.36782799697563   14.97973565669944
H        15.49130361636925    4.45223044661735   15.12627782804428
C        17.37549360599842    5.44898322818409   15.36534852314535
H        17.85823902785932    4.59496364427900   15.81777473786132
C        18.07410691499190    6.62869263700210   15.17583035504214
H        19.10896925239577    6.70047049523998   15.47753640670325
C        17.44503212337033    7.72217811172904   14.59958488776022
H        17.99098732910505    8.64342317967811   14.45442422448189
C        16.12076518305617    7.64095142920114   14.21220425538748
H        15.63311461350727    8.49479946673376   13.76369416058772
C        13.49960750746329    7.12118728503274   12.37831993125484
C        14.53375155490253    7.13957860596487   11.44945741455460
H        15.48430702827092    6.68074480444876   11.68815571624429
C        14.34850260605649    7.75521091319093   10.22520346257742
H        15.15605001165493    7.77605944835633    9.50751878516720
C        13.13215256258622    8.34160472515414    9.91772449758468
H        12.99565464986322    8.82744635636391    8.96254208738754
C        12.08720838228518    8.29191396043047   10.82674347255726
H        11.13203335199204    8.73094906314109   10.57850720317276
C        12.26392411794880    7.67447931715553   12.04950931250691
H        11.44844314755331    7.60116369446527   12.75647279605807
C        13.17326773624914    4.14811864869372   10.98476840189276
C        14.21922447092626    4.04764194713428   10.07531891463408
H        15.12981592389363    3.52967532062303   10.34069927190903
C        14.08982831949048    4.59843204312932    8.81221893629139
H        14.90475363008047    4.51208047625901    8.10713660499896
C        12.92249888623227    5.24595679293061    8.44669688167065
H        12.82615955743481    5.66665187924955    7.45615339327054
C        11.87896083945910    5.35031093653541    9.35207239207085
H        10.96551843694017    5.85327502871887    9.07089876873840
C        12.00218293780933    4.80813460071563   10.61602057151206
H        11.19306878258001    4.88853129717827   11.33012387051280
C        14.67417801311235    2.38477979008629   12.62618786174136
C        14.67402183276913    0.99651737425157   12.69221063337064
H        13.73861080920237    0.45390222834646   12.68408749712984
C        15.87136981585384    0.30759088038259   12.77146722989355
H        15.86367504657030   -0.77169779890108   12.82211470090970
C        17.07401726485523    0.99360397341795   12.79243814207146
H        18.00559684079626    0.45054654852598   12.85763461882000
C        17.08123273979152    2.37901220035766   12.73329343846543
H        18.01696963522780    2.91971017859173   12.75277278452809
C        15.88791249829616    3.06907713124009   12.65565755064240
H        15.88057801184208    4.15175881436728   12.62059789684882
C        11.86503468780375    2.13536799740627   12.35736227225077
C        11.60270305131574    1.55201332790193   11.12555946034264
H        12.19235431808030    1.82368295170773   10.26071982969431
C        10.58018255927623    0.62588984967579   11.01427309248749
H        10.36836430826992    0.17243087083395   10.05681672790239
C         9.82216682052907    0.28601832524016   12.12385576177873
H         9.01826081795652   -0.42955727317700   12.02743104692316
C        10.08371896575102    0.85970257106685   13.35664679575254
H         9.48024557470680    0.59600477707872   14.21401051541618
C        11.10588028700335    1.79071056729270   13.47468327512706
C        10.24174297532658    2.39719980145796   16.12190296181567
C         8.96260402037827    2.70901708462897   15.66965040648335
H         8.83378043425170    3.08128270173153   14.66338545186289
C         7.87815533539560    2.56821875433601   16.51532753939129
H         6.88581415671282    2.80094820840875   16.15710283450947
C         8.06102194885661    2.13568161245259   17.81831751987239
H         7.21219611953546    2.02511268536906   18.47756040457776
C         9.33578470110896    1.85407843108998   18.28111746601529
H         9.48296902256511    1.53074665621843   19.30172363499170
C        10.42322591815285    1.98640107718602   17.43891876507193
H        11.41756143250664    1.75995251060140   17.80156804267661
C        12.76467708491161    1.24681483565530   15.58185332089490
C        12.30848374911899   -0.05090689332158   15.78889016901249
H        11.25808422740764   -0.27708155858583   15.66994658006035
C        13.19636904854208   -1.04617900509187   16.15080360450801
H        12.83820287505854   -2.05342830034460   16.30967968608939
C        14.54388745605960   -0.75834789599524   16.30891017806051
H        15.23238804835992   -1.54182220297002   16.59072806005190
C        15.00419063065958    0.53066240560241   16.10473969082345
H        16.05291999760764    0.76168708301129   16.22413312101181
C        14.11563479068645    1.52439513493449   15.73760990931374
H        14.46324772543104    2.53675406262015   15.56960461467041

