80
CSD_code = LITYOE | q = 0 | S = 0 | Stoichiometry = C40H33ClN3OPPd | MND = 4
C         3.54278242739364    8.98095905121998   11.44645472217015
H         3.97665027105618    9.53646972005973   12.26422443989943
C         3.57241370498905    7.59630690541833   11.45484470457914
H         4.03822117246855    7.07055815266376   12.27513238669093
C         2.96464045740641    9.65146511261631   10.38088156168398
H         2.94810399616665   10.73109175562662   10.36664753290326
C         3.01656439962021    6.88041536803555   10.41067308350802
H         3.08039155178133    5.80229325653148   10.40073880520206
C         2.40562074152655    8.94226518903425    9.33467610222000
H         1.94629478802172    9.46167175805036    8.50697370103203
C         2.41691130611344    7.54863484389715    9.34432180652343
C         1.84400850982145    6.81243566218405    8.22351365307569
C         1.99998369713619    7.03338306777590    6.87809907638669
H         2.57904405527262    7.78910661099028    6.38542463653346
C         0.75428081807836    5.25106963719436    7.07536838634097
C         0.01135640246347    4.07645751453069    6.88122627028179
H        -0.15212892861258    3.69714613781211    5.86956873128022
C        -0.46687187275450    3.43126724366206    7.98630005337680
H        -1.03021075320879    2.51805891918749    7.88359545324034
C        -0.21822725164961    3.95653556628633    9.27418149930529
H        -0.61851994158073    3.45954544320108   10.14274359743457
C         0.53482274653224    5.07600019846871    9.43159874550184
H         0.75567601461303    5.51663447945981   10.39056941192385
C         1.24200755696603    5.89006420454739    4.77475575896714
H         1.80206657771704    6.68303777339470    4.25929101293427
C        -0.21517344666989    5.92037978427996    4.40563083441483
C        -1.91536270335970    5.93829037157917    2.69525916091563
H        -2.52600419110727    5.83531597539511    3.59191958797751
H        -2.18730883721355    5.17253260195569    1.96903508115595
H        -2.09387763524321    6.92761294296062    2.26556452678934
C         0.42071467555603    5.41798640321239    2.11361241991270
C         0.27322756800187    5.87279755620076    0.80615947866085
H        -0.55256165327483    6.51889428987145    0.54879395164355
C         1.48684395409827    4.57953119152740    2.45438158035447
C         1.19366022592209    5.52208327048945   -0.16464115014617
H         1.06463699758583    5.87577023835110   -1.17717611721854
C         2.42440747533226    4.28417408975200    1.47295041795848
H         3.28041989002167    3.65569945158316    1.70956729655213
C         2.27903845306589    4.73476956157254    0.16924680116769
H         3.00777867887975    4.46203768044699   -0.58036119884366
C         1.82863651887560    1.31448600663405    2.04257251560869
C         0.53901191415928    1.61180765996730    1.60987647884593
H        -0.15409096585823    2.06596313650759    2.31046498056068
C         2.73991565416547    0.76052261474011    1.15424713587738
H         3.74688875234423    0.53835117485882    1.48018142695719
C         0.16063929220618    1.34917413678021    0.30892394329311
H        -0.83987003784965    1.58410703437032   -0.02359410961531
C         2.35859599927763    0.50148911308557   -0.15148859661474
H         3.07078926372207    0.07354653162787   -0.84239537255531
C         1.07389502692489    0.79476171556635   -0.57504643572402
H         0.78455475402167    0.59767354416964   -1.59684942749862
C         1.44243046494636    0.41495378750989    4.68691546399580
C         1.07528447229881   -0.77984611495317    4.07383200836572
H         1.23102540348561   -0.91425111337151    3.01220331648732
C         1.22818373148624    0.58108099490687    6.05229239245006
H         1.52531126641667    1.50712319244587    6.52739730927567
C         0.50641994810710   -1.79433446670744    4.82243969379408
H         0.22596081627548   -2.72099733462600    4.34225103724744
C         0.65935848201353   -0.43792610496617    6.79449189311713
H         0.50057571075601   -0.30528235247973    7.85505643370278
C         0.29722593499062   -1.62626027367369    6.18170376997238
H        -0.14790686133538   -2.42237663135095    6.76086066945650
C         3.99291166491450    1.45288989178905    3.92027346809149
C         4.83103910427364    2.56543730072171    3.92182549220752
H         4.39294267360646    3.56772885723070    3.86196641620134
C         4.53091814847044    0.17767116744993    4.04924271780475
H         3.87675270900247   -0.68356580527641    4.06864447210159
C         6.19873971828088    2.40082758964912    4.03709485341262
H         6.84955129078948    3.26306647293650    4.04509050426110
C         5.90046853438059    0.01987546854559    4.16524852505129
H         6.32002828142964   -0.97051839030351    4.27000745975694
C         6.73291308294681    1.12750597321104    4.15589423853246
H         7.80116000106282    0.99810114775040    4.25274245566093
Cl        2.94610132327874    3.51797371872280    6.46015685780524
N         1.04322689879026    5.70105634534572    8.33687617009543
N         1.34283807119412    6.07276957614181    6.18734480802078
N        -0.53219534041413    5.77357079025369    3.08685697540908
O        -1.09135705226361    6.10795305611073    5.24969450858080
P         2.21279188307742    1.78620014487233    3.76188505083385
Pd        1.85541156676234    3.95774146287543    4.32847069495347

