36
CSD_code = LITZEW | q = 0 | S = 0 | Stoichiometry = C17H12Cl2N2O2Zn | MND = 4
Zn        9.25659558985790    1.68346091838798    8.03208324048064
Cl        7.79484595935715    3.34219250543697    7.85535279735612
Cl       10.39722408037902    0.84904552634031    9.69940808921899
O        14.97700251577660    6.25722793212147    6.76798013303233
H        15.78497516006745    6.78398333810726    6.66564138904705
O        15.88537086705714    5.05706130677783    5.12207276420880
N         8.35053704103384    0.26366946061430    6.73336733265396
N        10.44555396697740    1.90279502188864    6.24187286313526
C         8.75025018433896    0.43447754036337    5.48651587106601
C         8.09389028063646   -0.18134887847321    4.39905605431431
H         8.45459953001333   -0.01324321210690    3.39613512684804
C         7.00555181507555   -0.97398293591418    4.64102080225850
H         6.47587549540046   -1.45505884288322    3.83121680048830
C         6.56136159683128   -1.16133459471042    5.96519909844607
C         5.44508318231995   -1.95020707320964    6.30533430678103
H         4.89751993904700   -2.44356241661005    5.51579078642383
C         5.06512286077035   -2.08105507544920    7.61283325693613
H         4.20681941595331   -2.68329213936193    7.86974003298409
C         5.78194443856251   -1.43502277605247    8.63628968722746
H         5.46128671685475   -1.55270539412202    9.65993157691494
C         6.87152027545470   -0.66370924309255    8.34469215765241
H         7.43617768709840   -0.15937242919115    9.11714939372509
C         7.28504371840969   -0.50514313715068    7.00569339279381
C         9.89492141076035    1.29719266498870    5.26560289348445
H        10.22602442123662    1.42702106573997    4.23360615338872
C        11.55571390331724    2.71517495294533    6.11433169842585
C        11.67436088286180    3.79555306252890    6.99325704991496
H        10.88258491287247    3.97593623330267    7.70755760759018
C        12.77088501429803    4.62734750884698    6.92809327981089
H        12.86066934781482    5.46655061037087    7.59918131359511
C        13.77905526421776    4.37780119935705    5.99788921727531
C        13.67640736935763    3.28469323643073    5.13817212423651
H        14.47842665113477    3.10028946067643    4.43945942757405
C        12.57450281980827    2.45983355959925    5.18847189365013
H        12.51723917510368    1.59190708373145    4.54837324157583
C        14.98255650994309    5.23752395977510    5.90032714549164

