34
CSD_code = LITZAS | q = 0 | S = 0 | Stoichiometry = C14H12Cl2N2O3Zn | MND = 4
Zn       -2.22912073219855    8.36224596632768   -3.56042891586255
Cl       -0.84618001063527    9.87302316265679   -4.35092585148208
Cl       -2.81676491273606    6.29436049174512   -4.00433722114643
O         3.12525018139797    4.89815398678079    0.39062107276662
H         3.93048282667234    4.55875572637793    0.81163935072842
O         3.46958056432931    6.61591878548281    1.76986522507660
O        -4.61088453823007    9.59001489263447   -4.78439834346155
N        -1.79666954423800    8.43732596959742   -1.35038841970738
N        -3.80170893319065    9.47755864519384   -2.74424887000229
C        -0.67926694062266    7.87772247728853   -0.76119342499111
C         0.05188444782021    8.53394583143829    0.23619958720478
H        -0.24228853178755    9.52236271218564    0.55652195484248
C         1.18156908389051    7.94339844887364    0.75765554444093
H         1.76729508655821    8.43658642710944    1.51864015980373
C         1.59489522715902    6.69081934011498    0.30488688515173
C         0.87376714076032    6.04112730161970   -0.69629735655548
H         1.20607975241095    5.07936971059694   -1.05314013091170
C        -0.24826006736252    6.63402807606204   -1.23361968311990
H        -0.81901246781568    6.14423718026330   -2.00873136291562
C         2.81252907729084    6.09544197655347    0.90321729882614
C        -2.63311889083370    9.16431273981710   -0.72479026498749
H        -2.56901097872341    9.35748330146046    0.34771568185117
C        -3.74435196183470    9.76188882991751   -1.44477344807250
C        -4.68941996947670   10.58945579587726   -0.84931260053411
H        -4.64021884269413   10.81475735569914    0.20348015196820
C        -5.69135293410846   11.12107790352398   -1.65244789742389
H        -6.44050166479532   11.76884402723643   -1.22287193074648
C        -5.73273051425706   10.82895181461951   -3.00189106615862
H        -6.50318644973930   11.24288971704755   -3.63076423519096
C        -4.74240479584422    9.98204030548784   -3.52468530881812
C        -5.51504500801429   10.05261947206234   -5.76904254730080
H        -5.18600162984451    9.59797477505366   -6.70101256992845
H        -5.47439445902010   11.14129709735389   -5.86093737336963
H        -6.53703861028772    9.73250975594068   -5.54820408997248

