57
CSD_code = LIVDOJ | q = 0 | S = 0 | Stoichiometry = C29H22I2MoN2O | MND = 7
Mo        7.62574177558833   10.19828559791399    3.30829160701586
I         5.73481990667880   12.13457962168182    4.01437451371318
I         9.45538579245663   12.05346216733802    2.30759376297829
N         8.77315947758369   10.44099647415423    5.10143447820510
C         8.48880854488254   11.10371509129288    6.20608332840251
C         9.40465999481784   11.28693926071077    7.23698793555678
C        10.67997564232125   10.78566623594204    7.10965202956681
C        11.01880053603971   10.05267370276151    5.96202986883826
C        12.31188655441431    9.46233286902346    5.74847157374329
C        12.49076010941210    8.54639423067849    4.74751903347034
C        11.42512341116866    8.26211822285176    3.82590176618736
C        11.50505084743166    7.28842609710121    2.81965286421556
C        10.40876335246778    7.05922827942676    2.00761327585225
C         9.27970319456875    7.84915423040745    2.14055891899678
N         9.19139071423695    8.82604325589407    3.03676127930079
C        10.22107800000673    8.99890343630171    3.90343303234006
C        10.00126245234203    9.87745991145315    4.99724211368275
C        13.77008855115626    7.78421218766723    4.56323162210107
C        13.42330291453500    9.87335727292234    6.66958098094560
C         6.23672446401480    8.60107715190039    3.33695134984336
C         6.85993665405578    8.64743112981970    4.47334619910038
C         5.21766311338635    7.86767395145078    2.63539472351020
C         4.11124192881879    8.52201027300831    2.09194946788250
C         3.14584749360875    7.80120967739679    1.41618292682372
C         3.27775137398867    6.43060906328133    1.26110737444742
C         4.37492290084041    5.77525436156410    1.79721850516324
C         5.33973792371979    6.48414455755037    2.48571819170811
C         7.07205173249355    8.10809634714025    5.78077635634148
C         8.07882576900284    7.16187083288613    5.99340944901769
C         8.35492695784711    6.71872778839228    7.27183974375004
C         7.63694816595376    7.20733734664436    8.35156671593074
C         6.63358829324760    8.14119072728809    8.14689354977289
C         6.35345680390752    8.59814326274882    6.87431995558663
C         6.86844844429561    9.99638037973241    1.53167564416523
O         6.44820530360781    9.74562316385854    0.49269455553563
H         7.49850116384155   11.53210794976408    6.28401251784698
H         9.10913247749824   11.83964233507797    8.11384415833195
H        11.39665482659965   10.93663923258857    7.90001635055654
H        12.40329960356100    6.71255732469576    2.67511747675279
H        10.43638293475086    6.29483408975203    1.24783705079939
H         8.42869999312251    7.72354023372454    1.48051339127260
H        14.24241861600824    8.06024347941293    3.62099580699465
H        13.56503064297265    6.71519863151866    4.54196899550938
H        14.47218043464904    7.96484527480425    5.36798896502383
H        13.30055570763615   10.91078537775326    6.96808244364794
H        14.38886937193186    9.79098122508972    6.18107498846598
H        13.43436957627466    9.25387466142599    7.56681970568604
H         4.00990767044155    9.59173652541703    2.21648577609744
H         2.29018363218109    8.31290857568452    1.00207371236508
H         2.52636443059415    5.87215107854667    0.72327799020559
H         4.47831638198137    4.70633434194390    1.67946737835050
H         6.19872845078489    5.97857734479362    2.90782090365786
H         8.64158987544733    6.78031081518688    5.14892934113571
H         9.13593858241718    5.98819069331371    7.42638740745415
H         7.85817003621154    6.85905739987399    9.34913037296099
H         6.06933546417409    8.52105545001402    8.98560102936628
H         5.57563103202642    9.33139979944932    6.71039554385619

