38
CSD_code = LIVFOM | q = 0 | S = 0 | Stoichiometry = C13H17Cl2FN2OPtS | MND = 4
Pt        3.39905248846222   10.07722894282814   -1.03207511474898
Cl        4.21776092879576   11.73477023955103   -2.39118870721637
Cl        4.94522622407982    8.57793320235987   -1.72311413538752
C         2.58956604022198    8.68290857281391    0.16542406510175
N         2.66946900268100    8.64816374910152    1.50228823365944
C         3.42577614750669    9.57603323316114    2.29598878249365
H         4.22256631358369    9.99575957541776    1.67562547586715
H         3.86451164966738    9.06428003958472    3.15149842694188
H         2.77712584635026   10.38235305310615    2.64515581363713
C         1.89702712728538    7.63153447625490    1.98914026248254
H         1.81127728621521    7.42392398007281    3.03557089068538
C         1.33288345000466    7.01946838284279    0.92045258749413
H         0.67540551742328    6.17708544424813    0.86379615988454
N         1.77015468143302    7.68418999190477   -0.19152930122157
C         1.42702029158434    7.33511720320604   -1.55258452459627
H         1.99884853781663    8.00845780994979   -2.20661183909491
H         0.35626318790288    7.49983400087154   -1.70779093125123
C         1.78869506540906    5.89903451141743   -1.83438162769217
C         3.12979345124842    5.53628827881756   -1.89945190724884
H         3.89127580186636    6.29543930824010   -1.78785428960157
C         3.48488867205674    4.21884414347231   -2.12000510279363
H         4.51911684364244    3.92095312781647   -2.17792518248006
F         2.82316498448650    1.98641765152412   -2.48517498912235
C         2.48520750723280    3.27482000128376   -2.27386725270213
C         1.14565678735128    3.61152484250757   -2.21676816430828
H         0.39357519610877    2.84978777077304   -2.34586687130622
C         0.80415185327411    4.93364452347634   -1.99224187297835
H        -0.23909040167466    5.21141746392983   -1.94750714843163
C         0.93666253614892   12.34052843250969   -1.73261827513616
H         0.32096440634336   13.15354447753130   -1.36655574013957
H         0.31272737124842   11.53437927781538   -2.10397902689704
H         1.62804294556974   12.67058838926072   -2.49965067716896
S         1.93623854470445   11.68780685446000   -0.36225671302673
O         1.01959599709438   11.29837273222634    0.70838887431802
C         2.72408532619981   13.24436018454723    0.15038659251511
H         1.94867808500463   13.96452059411173    0.38186968304255
H         3.35288786082966   13.57157605764363   -0.66908250630625
H         3.32494644484005   13.04370947938548    1.03069605273922

