67
CSD_code = LIVFUU | q = 0 | S = 0 | Stoichiometry = C26H24N10NiO4S2 | MND = 6
Ni       -1.96602327130434   -1.58993499137015    6.19958868577812
S        -5.93657147635272   -0.69390640402294    4.57737814477224
O         0.03663995444686   -1.23244371013127   11.16882217094883
O        -1.33550684755344    2.35031742062878    0.73505071709319
N        -0.81567870255680   -0.55366152850433    4.34889953058378
N        -1.30122326203723   -0.03495345587630    7.45807123555295
N        -3.45708267049157   -0.66581611845657    5.79569363505818
N         2.07784562661004   -0.37033064723938   10.76036710385917
H         2.47490721346219   -0.92293279926222   11.50409875384875
H         2.70837158333803   -0.00278842340864   10.06926106611657
N        -2.95633709621447    0.78905735954618    0.93365487020379
H        -3.50702094759240    1.25351371702486    0.22869832286378
H        -3.22184200529482   -0.15612634711266    1.17534198202933
C         0.27097479970786    0.15055419068272    9.25897527974727
C        -4.51275494417391   -0.70983930453091    5.27676673171218
C        -1.75044179953573    1.31658619158777    1.21739497811878
C         0.39884937724099    0.28547089069863    1.98775184171232
H         0.85798638266893    0.62700788485243    1.07217731613095
C         0.77207240553634   -0.54676048189076   10.48080579500952
C        -0.82171814577024   -0.43374240390587    8.62894125736729
H        -1.29295656611007   -1.27845018590524    9.10906392237274
C         0.46437657438144   -0.81380610059118    4.10357904200122
H         0.99764379492565   -1.36647385052160    4.86368418142517
C        -0.94793361025386    0.54172173031407    2.22131595548431
C        -0.78338551091917    1.07146454577554    6.92777105471354
H        -1.22128980011495    1.41582389480913    6.00147360028821
C        -1.49834832470000    0.12351324647916    3.42692059414032
H        -2.52640058105123    0.36634939010948    3.66553837199270
C         0.83167904971506    1.28475453828023    8.68268460662687
H         1.66916505147270    1.79384953997639    9.13689263564905
C         1.11440316262134   -0.40479689704686    2.94896676423451
H         2.16045917055278   -0.62859125273983    2.81086318451715
C         0.25884162462740    1.77007963024468    7.51851842325647
H         0.63256749520780    2.66893574850584    7.05376827946794
S         2.00351289694302   -2.48608254576911    7.82382208164870
O        -3.97223477467725   -1.94744859994762    1.23061319544910
O        -2.59834700662709   -5.53171518213918   11.66395969047558
N        -3.11665276737264   -2.62698363418984    8.04972760642699
N        -2.63049537923042   -3.14429248200862    4.94042325046837
N        -0.47499104812086   -2.51432373970418    6.60359354878457
N        -6.01178004659180   -2.81312536973857    1.63991078530589
H        -6.41013554919418   -2.26147920774856    0.89615444204051
H        -6.64146422937708   -3.18169397556839    2.33122868560972
N        -0.97951044745263   -3.96818612183614   11.46744101798194
H        -0.42943516026031   -4.43154460655908   12.17358982238514
H        -0.71454087213706   -3.02294720651881   11.22537168234308
C        -4.20334800647054   -3.33132425194716    3.14025998381050
C         0.58023825425029   -2.46980951063618    7.12337653421342
C        -2.18412572209904   -4.49760052067579   11.18182079722923
C        -4.33396579312865   -3.47087098399863   10.40774889630152
H        -4.79407381402292   -3.81444504446847   11.32207109734933
C        -4.70618072640643   -2.63443854111053    1.91888705912833
C        -3.11135326677895   -2.74556357259031    3.77005484585335
H        -2.64180449255459   -1.89978942728664    3.29014597518312
C        -4.39759299923325   -2.36938645000274    8.29304412035247
H        -4.93055300708426   -1.81671830734279    7.53272480542366
C        -2.98618769129202   -3.72407704045322   10.17651559085103
C        -3.14633371488992   -4.25177042096766    5.47042879090027
H        -2.70717997948303   -4.59610473383700    6.39614427736968
C        -2.43436447184290   -3.30375309430903    8.97231738827735
H        -1.40542131180782   -3.54443184949967    8.73534477116771
C        -4.76186001602602   -4.46681644554763    3.71616827557599
H        -5.59880024988224   -4.97695460620407    3.26209168567699
C        -5.04904769313544   -2.78098445166490    9.44594301324582
H        -6.09581332393978   -2.55938067551077    9.58220532040030
C        -4.18775894426025   -4.95174939616764    4.87985826528395
H        -4.55976635034792   -5.85145302088217    5.34433266277421

