67
CSD_code = LIVGAB | q = 0 | S = 0 | Stoichiometry = C26H24N10NiO4S2 | MND = 6
Ni       -6.11634859934839    1.31828490979271   12.36145788222757
S        -2.10561317606050    0.49650435019750   13.92071791384966
O        -4.03061913633628    1.78686781840129   17.28663566512609
O        -5.56349761821602    5.14862101027842    6.81045262175995
N        -5.44910310482053    2.91114092781482   13.58327163567190
N        -4.99254096249102    2.32651791824057   10.48438236285112
N        -4.61619616852980    0.41352060699837   12.77041509001477
N        -1.99548988417926    2.62971647857160   16.81343338314709
H        -1.58391129418512    2.09168529040686   17.55994601462980
H        -1.37897688143785    2.97954285251111   16.10058508282946
N        -7.16536511759773    3.57475300501651    7.05442884156605
H        -7.72376650672058    4.01652656408062    6.34103364327544
H        -7.42195099122779    2.63395221608018    7.32153064969836
C        -3.54707904922345    0.48024639053485   13.25832892424441
C        -3.30784093630667    2.45393266800322   16.56733414589822
C        -5.14742107524671    3.38267869193198    8.33866139160510
C        -5.96442414543586    4.12240796490822    7.32013446533409
C        -3.83378224994973    3.12688312441387   15.34232381807263
C        -5.68986933466989    2.97163315140282    9.55036002661385
H        -6.72286957121747    3.19602047420386    9.78473644987682
C        -4.94506350643391    2.53617497406964   14.75174678274644
H        -5.41135224178320    1.70645346065864   15.26201772460033
C        -3.79428034711267    3.15515856489511    8.11116383342953
H        -3.34230428636406    3.49260369309911    7.19049755542052
C        -4.93812462606105    4.00291608058622   13.01694234043341
H        -5.39745996831909    4.33042851040981   12.09488076796920
C        -3.70581016443869    2.09409051036912   10.24543743257052
H        -3.16004287547904    1.56742914164948   11.01495779800219
C        -3.27947148759577    4.24356464158237   14.72682522129000
H        -2.42716795512563    4.75618523443169   15.14835255846141
C        -3.06376573621895    2.49931056500817    9.08501790213410
H        -2.01238950817401    2.29872832086510    8.95248389016222
C        -3.87764703003759    4.70747442588784   13.56666066735390
H        -3.50982532667386    5.59341286690534   13.07323447706384
S       -10.12232969525265    2.14290608058190   10.79118901951143
O        -8.18296189838771    0.85046863177745    7.42987257166487
O        -6.66210593629542   -2.49952425893524   17.92176437276537
N        -6.78332838365774   -0.27310175723939   11.14062181947873
N        -7.23694386119772    0.31471180221032   14.24285292420318
N        -7.61676026678769    2.22290067529910   11.95244351250000
N       -10.22186476579904    0.01200034387483    7.89451886727591
H       -10.62900901072509    0.54981815226763    7.14542207854766
H       -10.84236511752201   -0.33588233455735    8.60485269116592
N        -5.05292781396043   -0.93502965663623   17.66533692757786
H        -4.49333521561388   -1.37803150109563   18.37702731781550
H        -4.79370065698297    0.00450383616780   17.39627596264258
C        -8.68353172336484    2.15641969824950   11.45934015129561
C        -8.91024749007860    0.18529736666712    8.14635250254747
C        -7.07663546026085   -0.73522466205303   16.39126279100444
C        -6.25852753593351   -1.47646777077544   17.40789268571493
C        -8.39148251691917   -0.48703968867579    9.37478772754392
C        -6.53866367857278   -0.33228477396662   15.17486447239712
H        -5.50793645905466   -0.56319534310116   14.93565503495937
C        -7.28065789144923    0.10100884226569    9.96897359862039
H        -6.80883592075050    0.92775706197140    9.45893306944130
C        -8.42675742888845   -0.49755658520432   16.62591511055056
H        -8.87558990796380   -0.82866187325707   17.55041663435565
C        -7.30085570821039   -1.36167799329664   11.70718425784542
H        -6.84733593670772   -1.68831452402682   12.63242538528532
C        -8.52046480724535    0.55704325495712   14.48862624652589
H        -9.06733474846648    1.08394210111642   13.71998394471928
C        -8.95230777256809   -1.60056772239281    9.99012308446571
H        -9.80434727600549   -2.11132947624541    9.56581439720918
C        -9.15844038187675    0.16008108901609   15.65417474570686
H       -10.20786139293621    0.36778635191871   15.79203693660038
C        -8.36106862664360   -2.06393781669055   11.15403500034972
H        -8.73421385087186   -2.94748495437541   11.64773519781705

