67
CSD_code = LIVHIK | q = 0 | S = 0 | Stoichiometry = C26H24N10NiO4S2 | MND = 6
Ni        5.24033488460306    0.00084311346698   -0.00053281735129
S         6.32821842097178    2.86798475462202   -3.12864708783833
O         3.59808916209654    0.56012343688018   -5.08360223705024
O         3.72463725219264    3.35384966581294    5.68625257880984
N         5.18573154581225    1.89597094722359    1.50138106279301
N         3.38588776875094    2.79872773385938   -5.22650323889051
H         3.71254488327989    2.78213822693973   -6.18002419896029
H         3.42560743113470    3.67681203829250   -4.73888046719332
N         3.53143412310901    0.73963146860618   -0.96473160685571
N         6.26287516287952    0.94359595829494   -1.14740824976268
C         4.91868215646675    2.71514200332940    3.73789290210028
C         6.26055722681330    1.77361166259922   -1.98217081371054
C         4.40280503220448    2.51304857783371    5.13251639137393
C         3.05660954556939    1.73054599920670   -3.09566136850546
C         5.95486996006308    4.08179298879953    2.08314293756131
H         6.42715967199257    4.99763374106670    1.76418060286921
C         3.58579047669001    0.72887388818702   -2.29018885339780
H         4.09360005756187   -0.09422485265183   -2.77060854158398
N         4.72529414864586    1.32844833413645    5.68564578810390
H         4.43768731510796    1.17305276386817    6.63905265182422
H         5.44097788769978    0.71710823974917    5.31664191440722
C         2.81003398879514    1.69911353139518   -0.38777004813790
H         2.72701647601747    1.66199107597001    0.68929559805809
C         5.77923541585518    3.04177784591782    1.18286908487734
H         6.12329629011313    3.13833717241116    0.16304696950962
C         2.33704417234266    2.75191198339315   -2.48578855836862
H         1.88696512663277    3.54725304256377   -3.06161540833239
C         3.36967543184704    1.63263783635521   -4.55270201434860
C         5.51880194496226    3.91928687846936    3.38540667532004
H         5.63133916114584    4.69797608941464    4.12480265505733
C         4.75343804454548    1.74877258381949    2.75273099653279
H         4.22830869821310    0.82921913027380    2.97926130579977
C         2.18036416057590    2.70145673047900   -1.11028429177141
H         1.59728938242376    3.44803261585725   -0.59429134767018
S         4.15720030305812   -2.86111549100034    3.13270989865084
O         6.88910454207540   -0.56078546393667    5.08240482366409
O         6.74914024483194   -3.36504223156023   -5.68476819906602
N         5.29618196822504   -1.89635453132776   -1.50008197543419
N         7.11090723318179   -2.79845153654973    5.22366615778814
H         6.78606036129034   -2.78385489249837    6.17783643546656
H         7.07493879498014   -3.67655707061940    4.73586484638487
N         6.95010657868759   -0.73682984944086    0.96355869239032
N         4.21794983673416   -0.94209045834564    1.14631082268830
C         5.56091425622980   -2.71954917884807   -3.73531685001281
C         4.22219022083680   -1.76968775851097    1.98329863636240
C         6.07498208678755   -2.52096204429159   -5.13102663116881
C         7.43211670116537   -1.72764006702611    3.09286614373182
C         4.52848481537953   -4.08403623012626   -2.07638955357394
H         4.05780413839890   -4.99982343780586   -1.75477197241768
C         6.89708648071778   -0.72781822234042    2.28902743832587
H         6.38611910475779    0.09248202879847    2.77100812123860
N         5.75452089605077   -1.33669487098381   -5.68612619335448
H         6.04006715191182   -1.18467320041700   -6.64074742659909
H         5.04090034238310   -0.72281489899820   -5.31726277000279
C         7.67496739527785   -1.69253144356684    0.38467593202084
H         7.75659394205822   -1.65376137319147   -0.69243613744416
C         4.70464172258364   -3.04226207445699   -1.17838362326457
H         4.36157995465538   -3.13686048775545   -0.15812801330142
C         8.15547634610713   -2.74508413475846    2.48107147125935
H         8.60985007386855   -3.53905028014613    3.05550200481140
C         7.12119318606766   -1.63193995575644    4.55053170243830
C         4.96222468766556   -3.92340799686731   -3.37966054550082
H         4.85024648133486   -4.70402468142700   -4.11725071298986
C         5.72654843442273   -1.75110575775555   -2.75235779541035
H         6.24985048068353   -0.83103436970291   -2.98156295984432
C         8.30989967234913   -2.69276297075333    1.10536307509437
H         8.89544915811679   -3.43635227447191    0.58786619180615

