53
CSD_code = LIVYOE | q = 0 | S = 0 | Stoichiometry = C20H30N2Zn | MND = 4
Zn       -0.00004117057023    0.46134471531419    0.00001956516186
N         0.39359359404924    2.34837376011902    1.39896048122662
C         1.95781735542327   -0.03026824842484   -0.41284779417680
C         0.61802366033584    0.94997112918283    3.38201712070703
C         0.00593673631641    2.22375052907965    2.80307198167189
C        -0.18147432614326    3.51032334027453    0.74012248038145
C         0.40646365996657    3.42402695976837    3.63689175594009
C        -0.53163429207958    4.08741435001680    4.41648596313911
C        -0.16873363034115    5.17980623966513    5.18466745567065
C         1.14046806395789    5.62863033873763    5.17753926373586
C         2.08405367952744    4.97582031375081    4.40277468816528
C         1.71948893042810    3.88083414942961    3.64065424895553
H         1.40757020058865    2.42247159849739    1.35154725826247
H         2.50105492723348   -0.39000192714616    0.45988832583151
H         2.51180801605333    0.83306159483709   -0.77936545673773
H         2.06933271177925   -0.80219678041602   -1.17213987598470
H         0.30650973300617    0.09393900867090    2.78698535798631
H         0.28887760520691    0.81124497465781    4.40876036487524
H         1.70380903761566    1.00763385226939    3.37126910076447
H        -1.08567345624599    2.12596847917029    2.82172868721804
H         0.15327208155668    4.45577506058873    1.19552607018016
H        -1.26885696845880    3.45150485119087    0.84641155248262
H        -1.55580678408421    3.74176140278768    4.42318285349732
H        -0.91017896534825    5.68335934850895    5.78746724530633
H         1.42527151821921    6.48297807171958    5.77339420677765
H         3.10823744987684    5.31941869294107    4.39368562481780
H         2.47008331469430    3.37740601213160    3.04647456621909
C         0.18151296026060    3.51034055164452   -0.74011404090550
N        -0.39350804744223    2.34837942962674   -1.39897234238802
C        -1.95797738650021   -0.02997239458681    0.41286881163335
H        -2.50128550022305   -0.38959234318789   -0.45986919430403
H        -2.51183491847915    0.83343231755373    0.77940912364330
H        -2.06959661530242   -0.80190109983743    1.17214465100142
C        -0.00582820375275    2.22378835200382   -2.80308046411657
C        -0.61783164848655    0.94997553270412   -3.38204391022649
H        -0.30627880506547    0.09395750849976   -2.78701196663525
H        -0.28865707359894    0.81127447485453   -4.40878226175907
H        -1.70362093272490    1.00757791298210   -3.37131572476901
C        -0.40643127826290    3.42404725894321   -3.63689312298744
C         0.53161870803623    4.08748968667000   -4.41649892121312
C         0.16864569577594    5.17986090424659   -5.18467649415127
C        -1.14058184655373    5.62861165249508   -5.17753314273176
C        -2.08412127772653    4.97574533196375   -4.40275818484805
C        -1.71948447910624    3.88077900804592   -3.64064283309459
H        -2.47004489599731    3.37730375715948   -3.04645813808081
H        -3.10832611841386    5.31928444259765   -4.39365921559900
H        -1.42544163143900    6.48294397217241   -5.77338530705916
H         0.91005544569620    5.68345793761202   -5.78748516174394
H         1.55581187280882    3.74189496793892   -4.42320724705055
H         1.08578983815694    2.12607120948035   -2.82172751994598
H        -1.40748772243126    2.42244625539459   -1.35157391654720
H        -0.15326722636896    4.45578678782812   -1.19550438310312
H         1.26889840457462    3.45156476787386   -0.84640218509250

