23
CSD_code = LIWKIO | q = 0 | S = 0 | Stoichiometry = C9H9ClIrNO2 | MND = 4
Ir        2.47408446123708    1.28228843068936    2.90418696799275
Cl        2.55167798097045    2.30598294411685    4.89093788043451
O         2.47032508152631    3.96348408717176    1.55304191846248
O         2.36739756971343   -0.39547465565468    0.40861852987159
N         2.48619881323207   -0.48959682589184    4.12066435721175
H         3.32314981763899   -0.35432155938949    4.69279334647277
H         1.67820693376454   -0.33483292916389    4.72847603319848
C         2.45834311874471   -1.80257777728678    3.55411623232439
C         1.24551619295905   -2.41238299025642    3.26193922150027
H         0.32037062785122   -1.90201885692585    3.48905674880605
C         1.22306687361348   -3.65857000306784    2.66589175172976
H         0.27380348262160   -4.12064424867447    2.43882586112895
C         2.40223285041840   -4.32388116888844    2.35204450517559
C         3.60940407012633   -3.70679307595944    2.65446867074684
H         4.53773878353742   -4.20586087737770    2.41928232664909
C         3.64245185975816   -2.46011555157541    3.25056023885087
H         4.58975912900537   -1.98798914362618    3.46885402289662
C         2.36852987035287   -5.68181646603450    1.72211598063504
H         3.28021928037957   -5.87234192876558    1.16163211706452
H         1.51601031409671   -5.77640992600183    1.05378903596401
H         2.27813640389815   -6.44837338831374    2.49255823145421
C         2.47020902479756    2.91846689551082    2.02003570956812
C         2.40836745975650    0.27057901536412    1.34361031186391

