51
CSD_code = LIWMOV | q = 0 | S = 0 | Stoichiometry = C26H20Cl2N2Ni | MND = 4
C        11.98019650014830    1.52558132278467    5.61451096962759
H        12.89472102530489    1.47156180411689    5.02605090440048
H        12.20890049439397    1.22505278605045    6.63595947132132
H        11.24076819151095    0.83845040645898    5.19587707358554
C        11.41579749571177    2.90462198971940    5.58802313339250
C        12.14615299212506    4.01478026507178    6.03730832430715
H        13.15422494606811    3.87687081823549    6.39886177035314
C        11.59796430425278    5.27923412315282    5.98689443175320
C        10.27052028768649    5.41750174839041    5.50676521230024
C         9.55536428945671    6.64548452903961    5.49135692820453
H        10.02696020340193    7.52372947157558    5.90541200554313
C         8.29765183033421    6.71787147182014    4.98941918461633
H         7.76161220115453    7.65447334391443    5.00023491962160
C         7.63773990810754    5.57243935005531    4.46297908433110
C         6.33643009371595    5.60932156863308    3.90500995992973
C         5.76285349291985    4.41549209708359    3.51678351391285
H         4.77466004993094    4.40929788640621    3.08283800765118
C         6.45225825308008    3.20720204545168    3.64616015718023
C         5.85629570985855    1.91892544608805    3.19021951431629
H         4.77207766381485    1.93262698273578    3.26101455720723
H         6.14277754223096    1.74224699790300    2.15138439130097
H         6.25752524722471    1.09142620464199    3.79521601358795
C         8.28162644062485    4.32057627817953    4.54440323949004
C         9.61910661722702    4.24719836575863    5.06708863650615
C        12.39490425172584    6.44189809960233    6.40886292044958
C        12.57775751931814    7.52594575415383    5.55381917492293
H        12.12989596882776    7.50993555906116    4.57061873540942
C        13.35360465020297    8.60092201617458    5.94702235382778
H        13.49496511370681    9.43396171103444    5.27440381160172
C        13.94894801744944    8.61001295672940    7.19754395193565
H        14.55055202809280    9.45244083982084    7.50425395734956
C        13.77475577662062    7.53361659045733    8.05152651613209
H        14.23920983107105    7.53590383766959    9.02640097183085
C        13.00865890275972    6.45184867999617    7.65815134608207
H        12.86489249897031    5.61539780749151    8.32646929842861
C         5.60077702341814    6.86854090349533    3.71752292051427
C         6.17051608261815    7.92905134072163    3.01667451457865
H         7.16293852816139    7.82200183633894    2.60348836044747
C         5.45829661913243    9.09813864820108    2.82169906607604
H         5.90588806626408    9.91224545258277    2.27120726795806
C         4.17552559515098    9.22558317619631    3.32839686894414
H         3.62353957528656   10.14135412049869    3.17942408714169
C         3.60094960972672    8.17346642943560    4.02219416922165
H         2.60030734350637    8.26796041244262    4.41677176926545
C         4.30481936222312    6.99827522488520    4.20970049978200
H         3.86200309953216    6.18039880118968    4.75890907170507
N        10.19728892309751    3.03530182804469    5.10875039242541
N         7.67979562076948    3.18019572170543    4.14727193979658
Cl        7.86590883604929    1.04167853907039    6.17349845250374
Cl        9.23770998645584    1.46393560616870    2.37077998566097
Ni        8.59170538957886    1.57602080356717    4.31956619156692

