40
CSD_code = LIWNOV | q = 0 | S = 0 | Stoichiometry = C20H16N2OPt | MND = 4
Pt        5.59126799572392    1.65370687685103    6.80375763837125
O         6.70969247762461    3.26208062948051    7.03765655899078
N         4.61057231602428    0.04997872327712    6.24114355324494
N         5.51427514020930    2.05433415302350    4.69871009065493
C         4.21879124662614   -1.00265079632333    6.96694096069188
C         3.56109827004577   -2.10116281927231    6.43532677337142
C         3.27233334908325   -2.14959319518488    5.08566416856857
C         3.68967082693137   -1.08076036738355    4.28011519958415
C         4.36564904962139   -0.00451291539108    4.89419092622039
C         4.83315502408093    1.06861505586591    4.08233887894247
C         5.97253432697958    3.06477361190717    3.99520921173941
C         5.78084341756726    3.16441573658633    2.61462718211902
C         5.09629489029430    2.16679325059290    1.95700026190240
C         4.60160646724696    1.07562442914496    2.68728601934499
C         3.46453902739315   -1.04549165862372    2.87250256870459
C         3.89521488399514   -0.01344139527447    2.10712337141520
C         5.55737227912697    1.33595494771737    8.82287880087983
C         5.55844568843237    2.65726659402523    9.60220142092094
C         6.82936185625909    3.43838131191649    9.43223187147832
C         7.30635648286852    3.69587736124739    8.12972267738239
C         8.45780341759986    4.48608537680700    7.98673626311887
C         9.12772972022556    4.97901190756960    9.08633435989756
C         8.66760880449450    4.70172131105349   10.36218222112033
C         7.52145195701573    3.93892386736122   10.51943731384005
H         4.43819585774357   -0.96920195128361    8.02330710566460
H         3.27410341529652   -2.90903376478939    7.08956281868227
H         2.74819264417940   -2.98528832551319    4.64933028905703
H         6.51353922879587    3.81906109888042    4.55015447881190
H         6.17279360830060    4.01500179160074    2.07993180936231
H         4.93682343126525    2.20906707482425    0.88925282747081
H         2.93748770474490   -1.87737502150479    2.42903992211533
H         3.71744013041949   -0.00039173014222    1.04189982529612
H         4.65799981296389    0.78565253672286    9.12965551282887
H         6.43119778348147    0.74279532390143    9.13439571249396
H         5.40998981538463    2.45616886403707   10.66850567656710
H         4.71166689473202    3.27213889023590    9.26476409439523
H         8.81352568378112    4.68961554602517    6.98665637340256
H        10.01653176514902    5.57878762055631    8.94772728586419
H         9.19256551032808    5.07859312655948   11.22762294383825
H         7.15377779796677    3.73117692291500   11.51577503164466

