43
CSD_code = LIWPOW | q = 0 | S = 0 | Stoichiometry = C20H16N2O2PdS2 | MND = 4
Pd        7.64859716642767    0.00058909435251   -0.00084946849032
S         8.67221966791324    4.76335985738138    4.81108465938220
O         6.19351753316934    1.09788024249448    0.88219591580839
N         8.83113661038481    1.05234291626069    1.18046503824591
C        10.14460713753795    0.99987104922063    1.29071982243953
C        10.84491415074086    1.82921015874010    2.17783788310990
C        10.16052405987772    2.71937677783757    2.96435033191032
C         8.75619882104996    2.79421240025654    2.87185975646639
C         7.93598351192596    3.65985803167098    3.62317817708624
C         6.56704021418202    3.62832984087729    3.45343069616258
C         5.95148273719890    2.79025499443547    2.53375985967203
C         6.70567476889831    1.91316153952277    1.75238517264796
C         8.12565544064319    1.92563271567176    1.94280355346467
C         8.11837561252795    6.36368606216908    4.14002172545728
H        10.65795060392878    0.28329248485287    0.65895640127297
H        11.91958138835637    1.75544014570313    2.23098462633460
H        10.67348016325779    3.36685788421994    3.65971918153542
H         5.94915569964467    4.27795927270351    4.05640173662217
H         4.87863095869822    2.80028443450706    2.42317370686287
H         8.47738087972893    6.46683379691652    3.12051867337604
H         8.55675393517515    7.12830501159551    4.77268115510636
H         7.03551961235459    6.42837041795741    4.17313851238359
O         9.10374792273535   -1.09620732968700   -0.88456411765817
C         8.59150870161172   -1.91242169119446   -1.75384345711095
C         9.34557259630138   -2.79036164181843   -2.53441388643012
C         8.72985880506613   -3.62935565199720   -3.45316084644546
C         7.36089789253213   -3.66089937720708   -3.62278248765938
S         6.62441103034396   -4.76579255886522   -4.80922724915953
C         7.17815295998931   -6.36527932706750   -4.13602032598858
H         6.81985828144441   -6.46675455321615   -3.11610695582422
H         6.73894561938032   -7.13060816971619   -4.76723593646026
H         8.26094832991726   -6.43056991948071   -4.16985234515274
C         6.54085174971562   -2.79423102113600   -2.87246677625870
C         5.13654487029668   -2.71918947375822   -2.96506144902572
C         4.45234737419392   -1.82798262779514   -2.17956521513944
C         5.15282943554409   -0.99784500913313   -1.29333486882983
N         6.46627509082930   -1.05054341861905   -1.18294331706046
C         7.17156294414578   -1.92477137737078   -1.94435857644829
H         4.63960465159871   -0.28071112878221   -0.66209717604807
H         3.37769599417018   -1.75402361998587   -2.23281778324701
H         4.62347570275991   -3.36721676751947   -3.65983947597603
H         9.34760180657621   -4.27990713777993   -4.05527660673687
H        10.41842756722489   -2.80043732721918   -2.42384826419700

