104
CSD_code = LIWTEQ | q = 0 | S = 0 | Stoichiometry = C52H44Cl2NO2P2Rh | MND = 6
Rh        3.75386206284260    4.55713976777650    0.91344603387410
P         3.86098018192223    6.83987644329707    1.07539764484961
Cl        5.34527916053865    4.55751146531329    2.86173769582176
Cl        5.22035890321142    4.55738930910482   -0.84609421025769
O         2.03805996084093    4.55756945345103   -1.44022470664864
O         2.35879571293663    4.55772740168237    2.45422006142405
N         1.47095928765085    4.55750679162974    4.83065228708835
C         2.11068351072072    4.55820006141491   -0.24005345557334
C         0.90440608110261    4.55755028068343    0.64108150046432
C        -0.38282135750165    4.55734721262299    0.16049916823386
C        -1.48608406814414    4.55748767423514    1.03626421772614
C        -1.26316127024357    4.55750886250283    2.39036765369454
C         0.03778778268008    4.55748442324011    2.94267934514592
C         1.15501347601896    4.55759307279093    2.04052429218681
C        -2.87119979516635    4.55758287233772    0.46456397873366
C         0.25749929816690    4.55748079145310    4.32754745229889
C         1.91133141448003    4.55754270307580    6.14120614140153
C         1.06410748437209    4.55762530565627    7.24674923290247
C         1.59871102949243    4.55765345257717    8.52090433470322
C         2.97333367916288    4.55759750019322    8.72554453176110
C         3.81184652033504    4.55750736774603    7.61174482840873
C         3.29653762758902    4.55748720398511    6.33443857285386
C         3.55329746334287    4.55763523436246   10.10460585189440
C         3.21929738924374    7.89979309821403   -0.26703859405941
C         3.39392110223980    7.46375968788416   -1.57686100428171
C         2.97690506761778    8.25210109031604   -2.63423005550576
C         2.38855547715233    9.48218400450563   -2.39447361877209
C         2.22318160046765    9.92545851550489   -1.09228620378486
C         2.63840520133028    9.14230994971239   -0.03123082242531
C         5.47232276602201    7.65201508795361    1.34513235587014
C         5.49806048909006    8.95458262398555    1.83852889320286
C         6.70448812024772    9.60272879904113    2.01797283738733
C         7.89260502187688    8.96088153821214    1.70481389631374
C         7.86891335843658    7.66911145518532    1.20971518610616
C         6.66323279004266    7.01439619931059    1.02599431441202
C         2.90452800707002    7.34531062024233    2.53918223590971
C         3.51837321481359    7.36252291227768    3.78842079646429
C         2.77163985426450    7.61848635458844    4.92426386726572
C         1.40794814106975    7.84456590096581    4.82550544117722
C         0.78777059172660    7.80289172264276    3.58699785538731
C         1.52955195340145    7.54598258140082    2.44818223324560
H         2.21688429236357    4.55750480525042    4.10614214924065
H        -0.54223173258934    4.55750062003606   -0.90868669243486
H        -2.10119386350503    4.55751756304124    3.07372784942630
H        -3.61946202573228    4.55766802205942    1.25276954900900
H        -3.02188447332771    5.43683429568053   -0.16024337262339
H        -0.59387338380031    4.55751387788679    4.99799780880467
H        -0.00751957062440    4.55767489658738    7.11918885858570
H         0.93353650290659    4.55774715134360    9.37228710596050
H         4.88221945497737    4.55745295719189    7.75349209442195
H         3.95235878801123    4.55740134663887    5.47496671155539
H         2.77194863717193    4.55786743502140   10.86003067033552
H         4.18039821529054    5.43619418485674   10.25035899567930
H         3.85383003510405    6.50470160994251   -1.76673119681218
H         3.11127030295411    7.90256081039177   -3.64687493922555
H         2.05989190624891   10.09801241191763   -3.21908386846278
H         1.76897111263507   10.88744728361248   -0.90083951662101
H         2.49927887576254    9.49892523063521    0.97983222114884
H         4.57515175511085    9.45788988295939    2.09157726140095
H         8.83429844941544    9.47062889138874    1.84905352003810
H         6.71860206864188   10.61180046233192    2.40507793470826
H         8.79242341569163    7.16519742863644    0.96593602876759
H         6.64881263501045    6.00574349975781    0.64253428940502
H         4.57625338264814    7.15443294963026    3.86149704397625
H         3.25230323922669    7.63351826535899    5.89173598300708
H         0.82727205144573    8.04475128752309    5.71467738094171
H        -0.27803972370960    7.96454213072641    3.50682578049850
H         1.04174452370431    7.49688931770457    1.48253233076105
P         3.86095541875545    2.27492670310315    1.07535213128350
C         3.21944969788588    1.21512283289863   -0.26722999413935
C         3.39402068685578    1.65130164130004   -1.57700555930210
C         2.97718562709810    0.86292995463563   -2.63442714394008
C         2.38909874998656   -0.36729707887853   -2.39474832738294
C         2.22382467378236   -0.81070720522271   -1.09258920743142
C         2.63885654618492   -0.02753476775807   -0.03149190891065
H         2.49981515637284   -0.38422345670596    0.97955367604672
H         1.76980139501090   -1.77278997645475   -0.90119887260036
H         2.06057351995433   -0.98314739730397   -3.21939699312260
H         3.11149943812922    1.21254765707845   -3.64705031669796
H         3.85374981262927    2.61047719572472   -1.76678906939821
C         5.47227328712192    1.46288797303478    1.34529384022741
C         5.49809774238896    0.16055844080911    1.83927178188815
C         6.70455823798357   -0.48750090540985    2.01872319276628
C         7.89260758665099    0.15421261421858    1.70500938693922
C         7.86881093968221    1.44576406340659    1.20930193913036
C         6.66308661076464    2.10040003459686    1.02557425500486
H         6.64853603979364    3.10889589708882    0.64158777555617
H         8.79226798752225    1.94958000447333    0.96509258617650
H         8.83432333460013   -0.35549485630663    1.84921841353090
H         6.71874102442418   -1.49641667551030    2.40620735817429
H         4.57524497492867   -0.34265928235122    2.09267715823947
C         2.90416048240775    1.76960780350015    2.53894480478053
C         3.51771490108165    1.75256183155938    3.78832210576891
C         2.77075134795966    1.49656490582723    4.92400054869812
C         1.40710947039114    1.27031024564599    4.82493564884351
C         0.78721989589327    1.31181955489328    3.58628061217186
C         1.52923495839250    1.56875789552321    2.44762660959728
H         1.04164518937514    1.61772132646823    1.48186188194798
H        -0.27855207027957    1.15004160951858    3.50586900580410
H         0.82624781929248    1.07011871273638    5.71398409977953
H         3.25118911334978    1.48167383975393    5.89158740239313
H         4.57554808975816    1.96081617006942    3.86162479648995
H         4.18004155733230    3.67885028025777   10.25054176299645
H        -3.02201840694815    3.67831700260980   -0.16018942971284

