95
CSD_code = LIWTIX | q = 0 | S = 0 | Stoichiometry = C39H51NiO3P | MND = 4
Ni       15.06951232763996    7.80347673544303    3.73252736771849
P        12.88156257584944    7.80298665183622    4.41323064554796
O        14.95742793275906    7.80350574309864    0.78891953306781
O        15.86272583318618    5.38668225941958    5.18413914269461
C        11.48050236554984    7.80311491804420    3.23379454273656
C        10.92139121585599    9.00981339385401    2.78943355849043
C         9.76192747578290    8.99352099975835    2.01969235214159
H         9.34075217247976    9.93562371498467    1.69922451914568
C         9.16760837867710    7.80334845347918    1.65126911288515
H         8.26375162652213    7.80345421968723    1.06029124825087
C        11.49986729551286   10.34295075860069    3.04974609660730
C        10.73892609825699   11.29608992530394    3.71045696734060
H         9.76780084062547   11.00675766158513    4.08468835158232
C        11.22147012561507   12.58346711108891    3.91136367178402
C        12.46241507657549   12.89838530544945    3.37867694613135
H        12.84494595222342   13.89735172170269    3.49710896658319
C        13.23511006899195   11.97458088893817    2.67711190240774
C        12.74774903570851   10.68340996647004    2.53789791940322
H        13.30351459280855    9.92545555714438    2.00863078535260
C        10.37435013242404   13.58327492604056    4.68427607562446
C        11.04980154656976   14.94941424275010    4.82939515013867
H        11.99518286726387   14.86450387142577    5.36059150258362
H        10.40360478520806   15.61388301034627    5.39967971804602
H        11.22412874999010   15.40626669841027    3.85784536157632
C        10.11457259575478   13.02839666721711    6.09216181684668
H         9.57424114682976   12.08639395492518    6.05397231394875
H         9.52410471572615   13.73541073667322    6.67111220392438
H        11.05692018369410   12.86054167030265    6.61005648151978
C         9.04178208876779   13.78376259774704    3.94936038789577
H         9.22076711804477   14.15123928355280    2.94089169819575
H         8.42743751435448   14.51003207578724    4.47750068289652
H         8.48394167985823   12.85395706936949    3.87927731782532
C        14.54379588798528   12.44119567961870    2.05592722347690
C        15.44969537887404   13.05080986619844    3.13446787338596
H        15.00349122968665   13.93433461062975    3.58269273279051
H        16.40325483889492   13.34068411448316    2.69801149371891
H        15.64000368455311   12.32759890210916    3.92324591626371
C        14.21931681201500   13.50379719759741    0.99476345435123
H        13.56862121218016   13.08490041395423    0.22963454587376
H        15.13494941459660   13.84806269281829    0.51850873499550
H        13.71909430436761   14.36304094691789    1.43384566020733
C        15.31122023103439   11.30749464696498    1.37363439133108
H        15.56097381624598   10.52086026991529    2.08461708519061
H        16.24146990339473   11.69295966076455    0.96087479105574
H        14.73563775778309   10.87801578963671    0.55666859565367
C        12.46509337111412    9.16734674724519    5.57140685199144
H        11.39796472756072    9.15797139335187    5.79243308211040
H        12.75004408890668   10.13743046936827    5.17609390451724
H        13.02923444627758    8.98806021545492    6.48748284989279
C        15.03412474673261    7.80384503591464    1.92682541606725
C        15.64531202695193    6.31025136244716    4.54984851201157
C        10.92116995378592    6.59653963214287    2.78935508644758
C         9.76171158800786    6.61304331773699    2.01962383823069
H         9.34037877921923    5.67102783589701    1.69910567122672
C        11.49955821736730    5.26335814986238    3.04959331898417
C        10.73869271881666    4.31021534767396    3.71038256785579
H         9.76757931790637    4.59952300834727    4.08466334890415
C        11.22133635406311    3.02288449121328    3.91136266258884
C        12.46225863921969    2.70799858798055    3.37859686790639
H        12.84486550917738    1.70906666848700    3.49708674604080
C        13.23484273765714    3.63180250948342    2.67690971966013
C        12.74742046950716    4.92294586046275    2.53768136498195
H        13.30313256230552    5.68091632848861    2.00837885465947
C        10.37439733393212    2.02312592384508    4.68454093799704
C        11.04986321882901    0.65698467903158    4.82958103671759
H        11.99536788674866    0.74190422431704    5.36055584661841
H        10.40378950445838   -0.00744004886226    5.40005747067395
H        11.22395735131919    0.20007435132705    3.85801668916408
C        10.11500428658559    2.57810732645955    6.09245918113468
H         9.57465649145218    3.52010416016080    6.05434522392591
H         9.52470387605918    1.87113300219788    6.67162939520397
H        11.05749378391526    2.74600915219474    6.61008091938088
C         9.04163215967970    1.82260187423614    3.94999470425449
H         9.22035211314950    1.45513924790247    2.94147399683743
H         8.42745506280342    1.09630991637468    4.47829869658768
H         8.48374057302762    2.75238823341320    3.88007472517651
C        14.54351546102966    3.16527563514658    2.05564625038153
C        15.44960445923857    2.55593604543734    3.13417815920890
H        15.00351065347410    1.67248359833688    3.58265649314958
H        16.40311564034455    2.26602069079024    2.69764365406944
H        15.63998233441288    3.27934122887948    3.92276767122006
C        14.21904379334118    2.10250773508745    0.99464567040329
H        13.56811787660579    2.52120393701996    0.22960121668001
H        15.13464263543474    1.75835607938750    0.51824543964866
H        13.71906236545158    1.24321734994238    1.43391218606673
C        15.31070573014339    4.29901906385104    1.37315511553503
H        15.56032644251843    5.08580408173258    2.08401912895453
H        16.24101352431499    3.91366622596356    0.96042405555348
H        14.73500984191058    4.72826225070325    0.55614300665884
C        12.46523390889319    6.43830001748535    5.57108708039456
H        11.39806124388322    6.44740030505645    5.79192029867830
H        12.75046776739648    5.46832405790204    5.17571187639647
H        13.02914749277552    6.61757216258416    6.48730491961629
O        15.86194974622415   10.22069040493042    5.18402545292297
C        15.64443459935118    9.29704254353780    4.54975599752642

