64
CSD_code = LIWVAO | q = 0 | S = 0 | Stoichiometry = C26H31Cl2N2O2Ta | MND = 11
Ta        2.29710304835465    1.12479891634656    9.24332448923924
Cl        3.94024243788919    1.78010514157834    7.85285562958290
Cl        3.51668904563295   -0.53112666019804   10.15174835493148
O         1.98806354105766    7.04666101501122    5.42637717801852
O         0.17285481234185   -2.75828683663965   14.72313855704132
N         1.15200864156134    2.78763052682216    8.91889537864108
N         0.82270979145804    0.98244256835846   10.64673474442123
C         2.41794057331243   -0.80888349469844    5.97246818894033
C         1.57003273886095    0.17944541555569    6.35183914048486
C         0.95129833784140   -0.19857269497025    7.64313493296096
C         1.45712716297230   -1.56544408134999    7.91028618250545
C         2.34710230316998   -1.89720067367832    6.94235790631912
C         3.31561048363189   -0.84789254890879    4.78406757785155
C         1.25912014965608    1.44096619845336    5.61201795335542
C        -0.52556062381353    0.04414285451630    7.83268758936632
C         0.95365127885583   -2.41957526690507    9.02962212320766
C         3.15079402577900   -3.14470993973548    6.80369912023783
C         3.21594035693356    7.73077835446045    5.37059827279544
C         1.85343089484912    6.02658008048588    6.31992444137816
C         0.62343438299277    5.36732841511545    6.31347764193322
C         0.38532573521872    4.31740528663307    7.17152860709073
C         1.37410696179801    3.87726110336301    8.05534964951281
C         2.58619027612795    4.55880308749195    8.07875949814318
C         2.83012530385673    5.61641323505264    7.22050065984691
C         0.01230365925965    2.89054831318104    9.66125568114472
C        -0.16518088363485    1.92071441982486   10.58899975759461
C         0.66911134299608    0.05413610010222   11.69560058195037
C        -0.51150584462657   -0.67753990994405   11.84883154895782
C        -0.63977020700132   -1.60341544691295   12.86013050924397
C         0.40137682688268   -1.81784677916497   13.76424939913888
C         1.56728013832478   -1.07084605631807   13.63615761764458
C         1.69234131635331   -0.14468227122924   12.61594458680481
C         1.18669620874556   -3.01754971727754   15.66332536044831
H         3.07629526803085   -0.05110158065989    4.08454927823029
H         3.23597862546936   -1.80611495238177    4.27198925637991
H         4.35264122460939   -0.72015764631363    5.09894065600449
H         1.90689048055079    2.25901255286650    5.93148940425258
H         1.40431236713176    1.29701129653547    4.54324473490621
H         0.22788340678449    1.74292939120838    5.77855360665424
H        -0.77137982729569    1.10246328798073    7.76933129888837
H        -1.07496368775380   -0.48477535017952    7.05169372549554
H        -0.85674024931825   -0.33249089272045    8.79713737207186
H        -0.02036190273652   -2.84095506995913    8.77271100476270
H         0.84599023467602   -1.84712133932070    9.94968226194065
H         1.63468194928959   -3.24478228624509    9.22136428978740
H         3.07154119178738   -3.76497405445097    7.69224262547711
H         2.80984565636497   -3.72636793667662    5.94637459966983
H         4.19984549123063   -2.89774244464463    6.64393248380301
H         3.10834541600705    8.46449392811939    4.57299081446529
H         4.04284537115229    7.05455824496960    5.13065066917429
H         3.43103014072924    8.24900431173713    6.31107041709019
H        -0.13257349036439    5.69858301168463    5.61950671645893
H        -0.56829760034770    3.81123762111123    7.14423667472667
H         3.34515437216228    4.26039727926689    8.78802437969264
H         3.78512283674120    6.11451247906043    7.27134430109789
H        -0.65097980879225    3.73557139238953    9.54520313552589
H        -0.98824782414866    1.90279486128150   11.28864035534982
H        -1.32429777232098   -0.53001198653307   11.15247198687746
H        -1.54379145762140   -2.18062967667624   12.97160062567461
H         2.38637495134231   -1.19459903841008   14.32633502754314
H         2.59512465318849    0.44344596932339   12.53311875115149
H         2.10178344589052   -3.37488117198399   15.18034935743092
H         0.79372503581738   -3.79893905649838   16.31209044247025
H         1.41452728448111   -2.13065979848717   16.26374088637559

