64
CSD_code = LIWVES | q = 0 | S = 0 | Stoichiometry = C26H31Cl2N2NbO2 | MND = 11
Nb        1.56862083843900    0.55122628781065    4.77789459531107
Cl        2.90136471087125   -1.26529842767315    5.58808884253937
Cl        1.58434392393965   -0.83345975619523    2.82094492183279
O         2.79860809962783    1.91317326340891   11.59919119954405
O        -3.01526738697656    3.61610593814309    0.29696207987030
N         0.67555279042356    0.51847208741059    6.63980433033836
N        -0.43214341501959    0.83702452972013    4.37715577832708
C         3.74783233542315    1.81707515406117    5.19117052121240
C         3.73370315816653    1.45959147572078    3.81576917263153
C         2.67025969488385    2.15997405470692    3.17875041443224
C         1.98453263487862    2.91531675022344    4.17523635109275
C         2.65361793997108    2.70002179970997    5.42651770041386
C         4.84749397336607    1.47287766043035    6.14751759184820
C         4.76531271762467    0.62542494519062    3.12301996094478
C         2.47425897630292    2.24871201294631    1.69657589099225
C         0.98769296611869    4.00965603445933    3.93797292855688
C         2.43665629875544    3.54925246218797    6.64257809230084
C         2.09672914594139    2.72974543870268   12.50307961078608
C         2.20966469442478    1.60388723597018   10.40918613420777
C         2.93374167626035    0.75745866149817    9.56742198823020
C         2.43877197939415    0.38461745166563    8.33740037447946
C         1.19348118777280    0.84438722507168    7.89949864550254
C         0.47474185446260    1.68955981949547    8.74913131992987
C         0.97025386488233    2.06749858531706    9.98370174238746
C        -0.67141161163924    0.30771255844823    6.60602815969813
C        -1.26372788310619    0.48064710800126    5.39798639182655
C        -1.06289730494715    1.49493850850313    3.31101227060007
C        -0.75338844447081    1.23580510784137    1.97870533700590
C        -1.38181973389436    1.91807933738870    0.95092635448443
C        -2.33993433046247    2.88591290128446    1.22916002052689
C        -2.65318805206997    3.15605325031511    2.56268106962294
C        -2.03176498677747    2.47176953508238    3.58177554260732
C        -2.77572608333730    3.35103947648081   -1.06355305900095
H         4.59463494986865    1.76857054592429    7.16277002911071
H         5.76235376306575    1.98980512658152    5.85076739549173
H         5.04688149776876    0.40161108657985    6.13859583426829
H         5.17230122620651   -0.12088318106599    3.80359054035058
H         5.58537863156044    1.25237445379557    2.76669498951491
H         4.32933426683072    0.11057991473435    2.26802148347717
H         3.26513355787842    2.86294901911227    1.26093524086264
H         1.51291878698609    2.69554120270999    1.45339990980198
H         2.52200303956875    1.26054076605506    1.24080378572424
H         1.50492327405012    4.97064843943923    3.88855838483927
H         0.44770656816299    3.86228905555145    3.00561769762148
H         0.26162230779454    4.05784321951334    4.74785516496511
H         1.37477775581362    3.70337636005224    6.82702467408731
H         2.87374821015938    3.09611946535481    7.52908136565945
H         2.90001061013235    4.52690139379842    6.49038080734179
H         2.73838211352036    2.82043304662592   13.37775926753500
H         1.14504261858179    2.27703441554770   12.79814231519741
H         1.91145388863586    3.72519233656617   12.08714611366845
H         3.89019279132789    0.39406328867282    9.90880486563720
H         3.00418635618817   -0.29175721921020    7.71585634336291
H        -0.47962530586938    2.08089844998408    8.42589948194540
H         0.37969641139666    2.72718078821767   10.59995806765416
H        -1.21195016107544    0.06026517314018    7.51125955212804
H        -2.33021610602266    0.39305144128181    5.23089170753568
H        -0.02972236402109    0.47221994037632    1.73975215594293
H        -1.11626647635685    1.67481795229253   -0.06578635416213
H        -3.39319699160034    3.91195957520005    2.77292478890957
H        -2.27604596134279    2.70495774015782    4.60834355853119
H        -1.73693420431690    3.56145221807237   -1.33874923403450
H        -3.43528962251188    4.01961993858676   -1.61452844571097
H        -3.01610166161514    2.31418557302573   -1.31926376230622

