75
CSD_code = LIWWET | q = 0 | S = 0 | Stoichiometry = C33H38ClN2Ta | MND = 11
Ta        8.05712993738959    4.25737165460647    1.45809664485840
Cl        9.70244845656068    5.74287014616780    1.87896874805506
N         6.70291358768081    2.79688831372092    1.01422374554245
N         6.70283704484977    5.25424019034309    0.24730021172034
C         8.78811166391145    3.88895486478350    4.48845723555003
C         7.51120725169153    4.22457587249400    3.81028008926488
C         7.34000865041373    5.67398099442021    4.08118668973857
C         8.40106143487014    6.12228821149212    4.79816481424344
C         9.30568500276637    5.01456590024728    5.04423460421129
C         9.38316719136538    2.51361820272321    4.51799567444338
C         6.31408423142326    3.36880801798567    4.18584026856015
C         6.15568406177532    6.47170081497558    3.62797728715949
C         8.67381394924115    7.51733319540859    5.24865906958299
C        10.60443795020754    5.16994624039748    5.76052788093278
C         5.85663999714706   -0.94505902216887    2.73336214277306
C         4.82245807764710   -0.10831860201223    2.35815703369962
C         5.05273488677352    1.13805937903350    1.79020103626665
C         6.38001703106830    1.55467122354539    1.58160121190922
C         7.41497597658256    0.71391998221516    1.99875139702998
C         7.16297376131520   -0.52014560110805    2.56432482853829
C         3.86874919264472    2.01317759795144    1.49271097411420
C         6.02720141262040    3.08542014451664   -0.14491656878310
C         6.02653874683141    4.37804536382423   -0.54940975924452
C         6.49699779516708    6.62678676963875    0.07367509245256
C         5.21733205828709    7.20148821532199    0.14736908298479
C         5.09488795974099    8.57512675822324   -0.01275480865757
C         6.19485256099564    9.38186460584199   -0.23842538864886
C         7.45585085363361    8.81331495699770   -0.30551787065151
C         7.60278545239383    7.44935271094250   -0.15402834102681
C         3.99025030959067    6.38126693749240    0.41990782080642
C         9.65290980436008    2.97093024627053    0.32356852071364
C         9.11371353865132    2.87039970218132   -1.03944977815809
C         9.16413500155195    3.97486703034464   -1.89830982407817
C         8.59735083188191    3.92445058963139   -3.15545593162409
C         7.96802004887982    2.76835017527276   -3.59146554349585
C         7.91604792932575    1.66398800248575   -2.75823507537202
C         8.47970770835433    1.71282612463242   -1.49700626672630
H         8.64098288140275    1.76396041572870    4.25299318659293
H         9.76057602263281    2.28446464231122    5.51402823934690
H        10.22068463264140    2.43429874241307    3.82005282750364
H         6.51035693312862    2.31104190038832    4.03233261623210
H         6.08615716515737    3.52048879210489    5.24221888347331
H         5.43438491841827    3.64209825717133    3.60784832899694
H         5.47395869610714    5.85468193986865    3.04726769841898
H         5.61214810206676    6.87205340510777    4.48486390984112
H         6.46591406727683    7.31383779954084    3.00684867511679
H         8.80676188072625    7.55280256600666    6.33000453430122
H         7.85692771049823    8.17925695968756    4.97430201800325
H         9.59063588787986    7.88727605108582    4.78845734368815
H        11.28183214133715    5.79179099346419    5.17404261968024
H        11.07873115762503    4.20581709117542    5.92320058323227
H        10.45571104045597    5.65745328517525    6.72358012167059
H         5.64565980611595   -1.91072527836707    3.16674142970365
H         3.80038303187556   -0.42189180346356    2.51735379308995
H         8.43288015266435    1.04561723969243    1.86429420777221
H         7.98581557251203   -1.14967415603740    2.86953154699152
H         3.11187554949261    1.87938424519838    2.26374625773346
H         4.15476729332255    3.06086776406923    1.45569419132150
H         3.41800729374055    1.75079966656354    0.53581978633998
H         5.52129135767364    2.30048309706170   -0.68768997426695
H         5.52360244084814    4.72514519719651   -1.44076230654482
H         4.11106805420830    9.01855197187360    0.04988869576853
H         8.32391847791307    9.43110879027942   -0.47999552758120
H         8.58331518612499    6.99768046811464   -0.21501782065502
H         4.24250419930647    5.45675372850377    0.93410370701999
H         3.29157018444057    6.94839006982410    1.03182192075410
H         3.48562822331856    6.12227240570771   -0.51121821953829
H        10.55701070524533    3.58026054010471    0.34434492015442
H         9.88118921154238    1.98887336840271    0.73637538471385
H         9.66531797584511    4.87659536471415   -1.56717900301657
H         8.64670812962854    4.78835315276620   -3.80305137408449
H         7.52593255486876    2.72868831012668   -4.57597857351381
H         7.43238756726915    0.75752870035981   -3.09371823365696
H         8.43219241384426    0.84365829664032   -0.85499581443393
H         6.06939003124662   10.44753010859667   -0.35691752886255

