76
CSD_code = LIWWIX | q = 0 | S = 0 | Stoichiometry = C28H45N2Ta | MND = 11
Ta        6.33689657523998   10.35284361265077   16.00404702214844
N         6.22320529455000   12.19825924387554   16.93033172201468
N         8.10568835885634   10.54040923180937   17.09509022742573
C         3.87975589413438    8.85050816063974   15.33074503603503
C         4.65365494647700    8.77314695165798   16.57566046208874
C         5.46308205019447    7.55687592874380   16.44124565233740
C         5.28223554646247    7.05009538939320   15.18101408610223
C         4.29862693005774    7.84883164200931   14.49433335941882
C         2.76253635789034    9.82528352829604   15.10562753921765
C         3.97240920961654    9.08021214671945   17.89496923627724
C         6.26523464356261    6.95953875296365   17.55730793006938
C         5.94407265417880    5.86110079532634   14.56563031014143
C         3.85691425979676    7.56720781987126   13.09509280651496
C         3.34854382929711   15.18396212540817   18.12396214607750
C         3.32453675141123   13.80849808783194   18.78504400623799
C         4.66989516169422   13.10923487333954   18.61754715443871
C         5.02142104317351   12.97701634741363   17.12721311630055
C         5.06879101416862   14.37350074649276   16.49010806103857
C         3.71748994376991   15.06406999124025   16.64776081658970
C         7.39693251214876   12.70474496496440   17.36973457646188
C         8.41745149659691   11.80559833063565   17.45003692754224
C         9.04300261076700    9.48954059021038   17.42238512098071
C         9.19801500729919    9.30621759957172   18.94040591554511
C        10.07829702903407    8.09654150132611   19.23790638181438
C        11.44888632840477    8.25691426013968   18.58591980823487
C        11.30682849197410    8.46919346343377   17.08115656951808
C        10.43107759465451    9.68493268541954   16.79410303725981
C         5.76709468772315   11.49173674890172   14.04759678911819
C         7.09388758775601   11.72306738744864   13.46793038279234
C         8.02567768462713   10.75901734830303   13.58108692019851
C         7.67830968910358    9.52536776766213   14.28984619901780
H         2.96784483037482   10.78351955299653   15.58286851461745
H         2.59992930609102   10.00374195926160   14.04454096111952
H         1.83314403155377    9.43313595290513   15.52502685896997
H         3.46419890387533   10.04342772874950   17.86009933320474
H         3.22600063306890    8.31428480944720   18.11636588043818
H         4.68949182615166    9.09905948625225   18.71560973144216
H         5.66936283934538    6.21380371184255   18.08859310347183
H         6.56873274421472    7.72109244451828   18.27358235715248
H         7.15786057577783    6.46088158549553   17.18174173689291
H         6.73245816801980    5.47543399569617   15.20720489523854
H         5.21830155512417    5.06355717754404   14.39976984049192
H         6.37789118314105    6.11907983692059   13.59909019472207
H         4.69463413548428    7.65622335937978   12.40084645767443
H         3.07614422771012    8.25464084789153   12.78038305198947
H         3.47158285215212    6.55092736146616   13.01628382173843
H         2.37216757601345   15.66207203025518   18.22552652385414
H         4.08357543038614   15.81432912836775   18.62949266029183
H         3.09048046686048   13.91015413797990   19.84675852854193
H         2.53991209054464   13.20114782121102   18.32720408114778
H         5.45026788567602   13.68343811872838   19.12019101550728
H         4.64484277302076   12.11414361422560   19.06730009387140
H         4.21030900233979   12.41737579731264   16.63877006976570
H         5.83755452184191   14.97536880957944   16.97669387334877
H         5.33411934532065   14.28230639185579   15.43564314901046
H         2.94977305947153   14.48637398490007   16.12747150279063
H         3.75466755883481   16.05588369836109   16.19255979030901
H         7.49663209680317   13.73024628182649   17.69308061697721
H         9.39230573874264   12.06789056702287   17.83441853814996
H         8.61779014538558    8.56454469300317   17.01165517912545
H         8.21057262035983    9.18175139167744   19.39085975897269
H         9.64690617362942   10.20376053186281   19.36983410686360
H         9.59650807740216    7.19526134537230   18.85199143693537
H        10.19225194650178    7.97821595800097   20.31755338382398
H        11.95885084374261    9.11759004112269   19.02477508144312
H        12.05883105005425    7.37245199176163   18.78118665703050
H        12.29220642577579    8.60880211925367   16.63166634393208
H        10.85655220560365    7.58176075050924   16.63038617287296
H        10.32272814810421    9.83816153728912   15.71952758472669
H        10.90430438650832   10.57496966096142   17.21176056666571
H         5.15503837140251   12.39308521392659   14.06257231620955
H         5.22789284839554   10.70973625975434   13.50245162948701
H         7.32771748408901   12.68247928927653   13.02248131167187
H         9.03816209098982   10.91304695229743   13.22698844612932
H         8.54142183468259    8.88520816520469   14.46946372144366
H         6.92622880476602    8.94756588303158   13.74088980098808

