59
CSD_code = LIWXOH | q = 0 | S = 0 | Stoichiometry = C26H29ClIrNO | MND = 8
Ir        4.17671211310086   10.34828646464928    3.85554571131835
Cl        1.87776589017150   10.63058792500263    3.46109796183170
O         3.68721994909580    9.50074716133889    5.68678304010365
N         3.87084420670491    8.49739093833359    3.02609518491321
C         5.05230899656607   11.94203407575613    2.55086712822100
C         6.14003140643209   11.06010217255611    2.81282932870402
C         6.30680727135432   10.98173193834845    4.22487339015818
C         5.41108050210621   11.93538656759595    4.83563966659094
C         4.63813292044264   12.52533502851664    3.81268198239812
C         4.61454872462475   12.45105229967919    1.21492932209435
H         4.83793474035219   11.73422078501235    0.42859359372810
H         5.12908857643461   13.38684816929187    0.98737965094727
H         3.54392923336692   12.64216700167565    1.21542767286204
C         7.03320903674247   10.42964742243300    1.79764141063547
H         7.35651289142241    9.43979435454200    2.11202141604953
H         7.92269928629303   11.04963343883103    1.66941289822806
H         6.53751589211430   10.33943915162469    0.83488613021463
C         7.40115829460852   10.26447950662076    4.94574476988407
H         7.07432524205931    9.96578731036641    5.93929661159293
H         8.27002909407932   10.91735448617113    5.05424033212533
H         7.71164329408703    9.37593405059399    4.40051899901046
C         5.40738455994827   12.25755335669149    6.29441947115421
H         4.69421809968187   13.04583437840774    6.51951248114604
H         6.40063358687722   12.58186493526855    6.60695435863260
H         5.13618745255221   11.37734839431870    6.87726308757865
C         3.66274781216538   13.65151532685335    3.92391442544714
H         2.69976626253741   13.36283455876952    3.50474940585452
H         4.03186108712056   14.51586969615311    3.37033104042247
H         3.50839927355044   13.93766091929560    4.96066150585399
C         2.98548129565595    6.24903653181807    2.73422473671019
H         2.63998822886315    6.55965830513387    1.75068307598351
H         2.21777173140269    5.64552515803114    3.20892530695749
H         3.87453681340292    5.63406605221571    2.60275237520331
C         3.30139020691465    7.45280017544857    3.58420021245771
C         2.96960467078389    7.36511365823776    4.94311594456208
H         2.48324728971527    6.46093478286221    5.26894443426695
C         3.20310511103185    8.34562161201357    5.89955392934430
C         2.85815893928382    8.05773241397793    7.31623480294767
C         2.39847167589153    9.10461218153339    8.11184207382540
H         2.29820758171258   10.08417559682046    7.66991369657607
C         2.06117341250549    8.88380486182568    9.43355508384360
H         1.69603074084094    9.69952707650155   10.04024794089045
C         2.19180447183300    7.61771653367897    9.98017256573348
H         1.93007429217604    7.44358380222798   11.01359129532005
C         2.66490912104296    6.57536862294243    9.19972184276674
H         2.77809651873306    5.58974638217521    9.62761321604187
C         2.99721808477968    6.79040923026670    7.87464295521145
H         3.38529040456680    5.97753445999345    7.27953729912937
C         4.25548531130478    8.45181186031043    1.67158867706097
C         5.34999588404135    7.68392174363573    1.27551949437680
H         5.89549177836204    7.11763492115204    2.01682838973419
C         5.73487633623292    7.65522792564583   -0.05229378164640
H         6.58582841774003    7.06016793701605   -0.35050406925306
C         5.03489760618983    8.38672306499211   -0.99735418678317
H         5.33755846456625    8.36149310867593   -2.03362253755176
C         3.94479957219564    9.14956738572414   -0.60785499797501
H         3.39345337950275    9.71693324819254   -1.34327741391768
C         3.55174741573153    9.18483405931382    0.71676809250763
H         2.70130954649946    9.76917549288486    1.03361756799220

