59
CSD_code = LIWYEY | q = 0 | S = 0 | Stoichiometry = C26H27Cl3IrNO | MND = 8
Ir       -2.67121724999341    1.77108585387152   14.01451004014241
Cl       -4.87047778911888    1.91185113369897   14.82923131824688
Cl       -1.78668356015263    4.15743291908324   10.18377497865760
Cl       -5.60495590095603    6.65159054717204    7.39924959666009
O        -3.30768728388454    2.88647200325467   12.36838912162782
C        -1.49671915111586    1.40195380867616   15.86901786735628
C        -1.77731850976810    2.82121244351213   15.76286578748797
N        -3.38732787328107    0.10924666999525   13.04471687405364
C        -2.49898100511815    3.60514104888247   16.80962080311642
H        -2.55231323087370    4.65722607467093   16.54532209882927
H        -1.98161208035505    3.50723555182100   17.76399033285452
H        -3.51484005206993    3.23329433723997   16.93260227216306
C        -3.81215240516924    5.30357730472201    8.88037833364377
H        -3.06085082610878    5.93343546768447    8.43148470578048
C        -3.31924556110074   -2.55250456718712   15.60427619798055
H        -3.78515040425514   -2.78116374322349   16.55139815746620
C        -3.45271181515434    4.33739211200202    9.80609304511343
C        -5.14819470011007    5.44663586983113    8.54472209236499
C        -4.15567180973439    0.06643136591201   11.98190237207519
C        -0.45499093307243    2.19205183875557   13.97353507153559
C        -4.02559397411874    2.47662295765210   11.41092396890091
C        -3.05892399379262   -1.08557381005831   13.71849261748355
C        -6.11641048500283    4.63486255020712    9.11689832934305
H        -7.15365451692003    4.76102100174262    8.85105943560507
C        -3.65347897813414   -1.38538908109278   14.94314776537581
H        -4.37170097209756   -0.69302792059873   15.35510591477238
C         0.14876931774515   -0.22830526502354   14.67553241426978
H        -0.34737980935596   -1.03693657586539   15.20516327262710
H         1.14720626586873   -0.10199075961134   15.09861813485560
H         0.26112748619349   -0.51577593537403   13.63259542094084
C        -4.48379098828210    1.18486402202246   11.19899876981161
H        -5.10283048880484    1.01590818506363   10.33319539842108
C        -1.08318692804779    4.70443163737125   14.09412780513799
H        -1.40635337263671    4.75500080097964   13.05572902671629
H        -0.05692177230704    5.07040017896215   14.14943897278004
H        -1.72255626692833    5.35955686687387   14.67919696830434
C        -1.14955040476843    3.29871706058411   14.59251496297055
C        -4.40209405194948    3.50179097270722   10.39114425261594
C        -0.60289043168969    1.05302806002501   14.81094072370222
C        -5.73557373562110    3.67138245195798   10.03096611276660
H        -6.48188538122475    3.04654898863378   10.49589732492388
C         0.47372045896870    2.31899341292099   12.81146995278728
H         0.62347701306310    1.35926869439628   12.32215435373518
H         1.44554091900179    2.68469238903800   13.14949388799067
H         0.08335613824323    3.02377101329244   12.08125548403869
C        -1.81155049911136    0.57892397502187   17.07699301482344
H        -2.80763156049545    0.81273996689974   17.44481430194200
H        -1.09326821035442    0.79578211561845   17.87018080427459
H        -1.76645581117557   -0.48379724011906   16.85210639623460
C        -2.39708623684598   -3.43061832931227   15.05643908258988
H        -2.13992048871581   -4.34154378321481   15.57608920680300
C        -2.13497815392418   -1.97258731036804   13.16825844971600
H        -1.67618899826813   -1.73797495661578   12.21853615396584
C        -1.80674065927590   -3.13687893513676   13.83835959473756
H        -1.08689319643327   -3.81768436593642   13.40804251081001
C        -4.72314608258878   -1.25695766693311   11.53967061967466
H        -3.96448091434785   -1.84061732823304   11.02067594037071
H        -5.55999225398971   -1.10304862672780   10.86543685205887
H        -5.05748584048197   -1.82969745212489   12.40215473397097

