59
CSD_code = LIWYIC | q = 0 | S = 0 | Stoichiometry = C26H28BrClIrNO | MND = 8
Ir        1.41339905234758    1.44812537830518    3.28360001780249
Br        1.36166403118901    4.07823751267488    8.21024853353180
N         0.64691459532118    3.35430507815477    3.31381615642939
C         2.63079882870701    0.95118845235149    1.47713154104115
C         0.91080592703194    4.05307632076131    2.11821754295444
C        -0.64671541354738    0.92615083295805    9.97841436078502
H        -0.86991115949303    0.62035793951831   10.98924942461464
C         0.20145594391853    2.12791525992415    5.95813009695705
C        -0.07611273929076    1.73693061448393    7.37267888726743
C         0.05538397554861    2.09847658948118    9.76041795385668
H         0.39020936698840    2.70290619987784   10.58970833482262
C         2.35970280375307   -0.26677455680678    2.21436548564885
C         1.45437445356963    5.41519272024472   -0.24352826091502
H         1.66611079533451    5.94380519016635   -1.16100620656588
C        -0.28213321160808    3.35024362110502    5.52695082772708
H        -0.87565574893474    3.92439482440460    6.22062280409555
C         0.33603841820132    2.49245108675669    8.46332067411035
C        -1.04766961934720    0.14741909662168    8.90492315852413
H        -1.58466864455466   -0.77330636846581    9.07412185797181
C         0.30614974117287    3.65779219350773    0.92597255049974
H        -0.37543184064751    2.82114165705747    0.94064627581490
C         2.35366547719264    1.11914758543292    0.01732294027348
H         1.36830882562033    0.73111613924731   -0.22942593269647
H         3.09441049863121    0.56773539967183   -0.56553727121920
H         2.39595245040650    2.16560090254010   -0.27421663649814
C         0.58080700775610    4.33889331820638   -0.24513517247145
H         0.10637545974988    4.03047578957340   -1.16496714333818
C        -0.66194232240847    5.28242509148153    4.04257674544119
H         0.03011968396430    6.05373458630692    4.37811105482071
H        -1.57764986544717    5.37702327911601    4.61927389996283
H        -0.88128610149515    5.44730798788583    2.99081834717961
C        -0.75688973199259    0.54790530730506    7.61391858339926
H        -1.05745577447031   -0.04719693067617    6.76521916631432
C         2.05344158265380    5.81312842833670    0.94039930758823
H         2.73371396923189    6.65219773237645    0.94729446145088
C         1.78341346289846    5.14079970403799    2.11808963223747
H         2.24642696813816    5.44804987905286    3.04433257140275
C         1.67012861037827   -1.45502371148322    1.62823636395685
H         1.63006070083434   -2.27631742424939    2.33831590230436
H         2.20204195322880   -1.78544145196004    0.73539996906133
H         0.64916515864147   -1.20230560728186    1.34413633029356
C        -0.05701685538685    3.92159279614451    4.26307882409629
C         3.48831764145149    1.76530954857244    2.27919614166544
C         4.50286965025126    1.58353512643176    4.66758404265628
H         4.60572533811715    2.66624572691727    4.67848728968768
H         5.49828951022441    1.14728474939896    4.56098937782760
H         4.09438728722694    1.26549291257943    5.62426418880910
C         3.01947490658143   -1.16499560417760    4.57687336943764
H         2.60341990327575   -0.76106104682494    5.49935922874938
H         4.05596687112963   -1.44825842556307    4.76481419477459
H         2.45423815945399   -2.05460456723030    4.31301043443452
C         4.21650565779287    2.98892455924303    1.83476305187933
H         3.71845946725766    3.46300766113589    0.99340116983589
H         5.22581323981069    2.71148536936155    1.52451886513165
H         4.30168736491817    3.71462654236550    2.64052777110681
C         3.62442605561863    1.13673389830252    3.54586114045579
C         2.95752188914553   -0.14441824282942    3.48760527125265
Cl       -0.77881389829519    0.83949909729975    2.70591858236958
O         0.84281024224810    1.26871425086733    5.28098191939611

