59
CSD_code = LIWZAV | q = 0 | S = 0 | Stoichiometry = C26H28BrClIrNO | MND = 8
Ir       -0.01985934068635    2.93780222991967    6.36420251614568
Br        0.27647932459183    7.36421495106118   -1.26912789195983
Cl        2.07582081486355    2.12765961513724    5.67315467037856
O        -0.00932767454158    4.14616420570943    4.67193207227205
N         1.09471445084729    4.39303599584505    7.28723950870766
C        -2.21393375565353    2.84688449559132    6.86281765086113
C        -1.93748993760694    1.96277004532107    5.75481778824580
C        -1.04123132124422    0.96819071511413    6.20171860713665
C        -0.75269927534757    1.22750167289244    7.59961348573779
C        -1.55118478201719    2.33262737041706    8.01386491048805
C        -3.24318286148506    3.92931007686701    6.84856366455480
H        -3.05010887354632    4.66267102310495    7.62832365498257
H        -4.23512889208673    3.50544208412843    7.01910655596821
H        -3.25242929614477    4.43825690037159    5.88731678724200
C        -2.58493570660590    2.08154252287879    4.41401599152861
H        -2.34692615260484    3.04336848984943    3.96050877206154
H        -3.66845501486360    2.01082577532616    4.51650241530239
H        -2.24425898161097    1.29743184208882    3.74350578753601
C        -0.55588505242639   -0.23781896789710    5.46573384350129
H        -0.92363569930508   -0.24981237595210    4.44337048522555
H        -0.89569658399773   -1.14133273937187    5.97325570786727
H         0.53297714956958   -0.25242756713382    5.43603308724886
C        -0.00203538108170    0.28377395948131    8.48305902258214
H         0.88295065286912   -0.08862032081311    7.97226195464770
H        -0.63469564899182   -0.56896382454177    8.73723224771352
H         0.30832031457023    0.77025900191564    9.40444576401603
C        -1.76712555347755    2.79136092700150    9.41672798738497
H        -0.93774527659697    2.50786615696787   10.05894701411059
H        -2.67661433845975    2.33023513349011    9.80667280833659
H        -1.88918088651059    3.87089005907617    9.46876295325674
C         1.25884533318829    4.14348611622556    8.66469393006555
C         0.64953035424005    4.97072316111740    9.60722175668234
H         0.05477816762308    5.80797447904876    9.27084840909970
C         0.80251224795252    4.71517799413463   10.95752095083772
H         0.32577489931729    5.35924593544413   11.68194605513917
C         1.56269105672075    3.63783949808349   11.38153354584006
H         1.68137478689806    3.44196819599135   12.43670645727781
C         2.17050741516899    2.81367867401882   10.44708996914722
H         2.76798146829523    1.97566144199875   10.77472056125212
C         2.02427080231918    3.06062273246157    9.09490490105921
H         2.49702103508357    2.43201972455125    8.35566702454374
C         2.64523854391306    6.24811102010479    7.55852257864425
H         2.08410712244726    6.95742982876552    8.16506511067784
H         3.32170518298077    6.80413793150047    6.91664721202868
H         3.22472760928195    5.61577214757542    8.22765589867424
C         1.70722921416879    5.41078026212524    6.72879746214441
C         1.54222350275661    5.79377489750991    5.38839662800345
H         2.13095132314815    6.62749518171704    5.04423170134215
C         0.70225008904735    5.17947818190976    4.47030450295651
C         0.60640899677895    5.74809913080224    3.09984024940885
C         0.41992251670010    4.86920259401445    2.03445738883258
H         0.36167411601502    3.81142299889938    2.23932820803481
C         0.32791922650541    5.33767713394850    0.73868777428876
H         0.19463909319223    4.65514478670356   -0.08667335236348
C         0.40955691220432    6.70129446812209    0.51200326397657
C         0.57827036116346    7.59571170376741    1.55593404323356
H         0.62748544256771    8.65584317049347    1.35874988492183
C         0.67710190144074    7.11555515410017    2.84833045897974
H         0.78810485845961    7.81306200104320    3.66408760218143

