20
CSD_code = LIWZOJ | q = 0 | S = 0 | Stoichiometry = C8H3F2MnO6 | MND = 6
Mn        2.60068829511779    3.20581383326675    6.82977925817059
F        -0.45495068755804    1.91431963264503    6.40953700349248
F         0.10089337529082    3.01970840093798    4.62952970158712
O         2.39096841636551    0.72904345390021    5.25915593145308
O         3.88564934071166    5.28098206971194    8.48737897673850
O         0.14198370631298    4.80999365719842    7.05883908867110
O         5.17347539481410    1.77996967886427    6.75963180842272
O         1.57498344588016    1.26739329261764    8.79071678932993
O         3.03659266820078    4.14171675240331    4.07487111260816
C         1.78772642076947    1.68878511301973    5.65214527500666
C         3.38332593474446    4.48332341139297    7.84829179976050
C         1.06244387591710    4.15748786313357    6.93802400126094
C         4.17565305515109    2.31948558637229    6.77739026629370
C         1.98735839980752    2.05277442053402    8.07714560386369
C         2.89126861163249    3.83120724991977    5.16039542768769
C         0.27177364611703    1.80951242570940    5.25127540152089
C        -0.24012193496290    0.68021153755933    4.38897520920778
H         0.32806452824491    0.65260482682030    3.46319679574185
H        -1.29308580509935    0.84182897658666    4.17076788985819
H        -0.11329068745759   -0.25996218259363    4.91875265932396

