38
CSD_code = LIXBAW | q = 0 | S = 0 | Stoichiometry = C16H13Br2N3S3Zn | MND = 4
Zn        3.36023412122438    4.75275077603916    8.90119795155216
S         3.92840843498930    9.91010450668047    9.02001931379844
S         4.82986854203056    7.28045120783078   10.06998836760312
S         1.95389411765338    7.63083369615942    9.05898323910752
N         4.35587775437003   10.29086303498618   11.61061504581570
N         3.39317021908972    5.28403977957225   11.04557616190883
N         3.40378687549032    6.27342861109173    7.30209484598216
C         3.38590647401183    8.40386411086503    9.87138754342375
H         3.05798636453825    8.70591524936042   10.86778516426706
C         4.49634048032886   10.83435762187833   10.41648483484227
C         5.05839031508843   12.08889420112310   10.19771579214378
H         5.14502826479025   12.47594366867319    9.19547468558395
C         5.48987990739951   12.79690237693794   11.30218393946745
H         5.93283731852635   13.77412801403315   11.18241720092108
C         5.34660518998466   12.23466514751401   12.56565149574624
H         5.67313334849169   12.75797584863087   13.44948991051958
C         4.77281616451845   10.98023143055973   12.66151301163968
H         4.63159756784433   10.49173686169428   13.61668864070440
C         4.12818645901057    6.32654907348124   11.40040972779662
C         4.32985970437003    6.70453200364314   12.71629724162095
H         4.93732563634775    7.56699928285308   12.93802003372348
C         3.72875395085180    5.94348059075780   13.70660925539840
H         3.86538974210404    6.19748370259712   14.74684373258853
C         2.94903404832042    4.85774650893998   13.33765996900013
H         2.45977042475391    4.24450005289693   14.07669685641104
C         2.80514970297580    4.56422319490896   11.99184501260991
H         2.19917201159131    3.73555739226015   11.65132990039121
C         2.69024524608637    7.37861513197843    7.45221857330596
C         2.52120224626326    8.31908266513533    6.45178011120681
H         1.92235806626002    9.19646889927581    6.63274430365601
C         3.14623950936845    8.08991338521707    5.23608274295877
H         3.03785239542536    8.79708421654630    4.42803677968617
C         3.91194681028771    6.94475470626486    5.08188407578441
H         4.41984243817137    6.73184743705393    4.15537260810695
C         4.01404584680113    6.06126180715106    6.14305868915930
H         4.60338085644664    5.15686775514005    6.07413631346857
Br        1.19493545139590    3.82145118085415    8.76236543699912
Br        5.45574799280162    3.72079486941312    8.56074149109846

