69
CSD_code = LIXHOR | q = 0 | S = 0 | Stoichiometry = C33H27Br2N3O2PRe | MND = 6
Re        3.97323113369554   13.88109006677601   19.90019859423288
Br        2.92720189272031   12.00142881583415   21.08212020243778
Br        2.23073806943034   15.44252440038691   20.78018157917840
P         5.91269498438048   12.40629505197146   19.45779958693927
O         5.28518626892689   14.36102404916856   21.40199249397024
O         6.96165058315596   15.63272538797229   22.14351984933542
N         5.00628201223463   15.65157676953437   19.22634905181251
N         3.23132669813761   13.58189108094472   18.33419180351227
N         4.95313075153043   16.44201284627042   18.14689030573045
H         4.24599163330800   16.29828329504676   17.44222400760046
C         6.35445223690960   11.17862822782737   20.71709435468600
C         6.77523630702965    9.90699294487829   20.33589681739041
H         6.82882605154633    9.64365236209322   19.28901340885666
C         7.11705700601416    8.97968522481991   21.30255229487871
H         7.44025267740656    7.99319310715063   21.00403045421774
C         7.03827197564005    9.30892311348621   22.64601251456951
H         7.29931117908053    8.57768736328040   23.39632710532981
C         6.61750615701483   10.57221996855918   23.02718383527169
H         6.54830517263924   10.83019062691327   24.07302950726880
C         6.27435543015541   11.50699200394227   22.06850491999705
H         5.93867248951755   12.48789598260155   22.37454223416673
C         5.72091379866666   11.43516853400966   17.93215274236345
C         4.50798478755615   10.77033355616303   17.75955223549771
H         3.75348993753727   10.82544062673528   18.53301353104980
C         4.27366792823278   10.04575132057226   16.60659910803394
H         3.33038097437659    9.53772301510572   16.47658009522589
C         5.24508477062468    9.97930159640965   15.62020346694942
H         5.05945972258357    9.42145915208850   14.71459955828475
C         6.45901991714352   10.62186227669596   15.79820917460047
H         7.22270069441486   10.55830142069145   15.03683175871394
C         6.70246180654001   11.34744738955484   16.95149790821248
H         7.65549033136761   11.83899529214863   17.08976947202124
C         7.39091246944637   13.42590620365746   19.21785582798816
C         8.37987174082858   13.52570740664538   20.18926798994619
H         8.34446942052498   12.89272833353110   21.06474015572990
C         9.39868968022676   14.45123036700562   20.04105701994886
H        10.15466941884968   14.53670272712895   20.80623347792076
C         9.43555295505945   15.27772749543374   18.93142498000591
H        10.22186688219230   16.00994917891375   18.82785498946117
C         8.45655190805710   15.17576733673456   17.95387828808503
H         8.48296312046739   15.82434107829683   17.08996809949003
C         7.43395303133525   14.26020303469953   18.09975831742644
H         6.64887051854401   14.18705002603708   17.35609605233776
C         6.10365355687464   15.34588849779592   21.33487856936937
C         5.90239998440079   16.12652971071976   20.06760641315370
C         6.48946695171218   17.29544739097333   19.52136247729897
C         7.48090676221770   18.18486516239923   19.93547302549692
H         7.97453004593182   18.03671324635668   20.88208551929922
C         7.78769627299047   19.22745307982027   19.09368587424326
H         8.54922243276021   19.93778899368811   19.37759313719649
C         7.13049532451692   19.40031364900995   17.86721600289069
H         7.40328420613155   20.23943680951215   17.24504966095256
C         6.14853635769254   18.53576686340734   17.43672698040444
H         5.64265389933169   18.67339718167693   16.49382518357730
C         5.83313295682262   17.47474672199458   18.27872284714850
C         2.70813033645109   13.27212340434964   17.14998614976657
C         1.37900286044904   12.80543158575698   17.08299020708433
H         0.81454262533841   12.74960054090219   18.00113748698161
C         0.84534866493616   12.42724447868170   15.87462102352011
H        -0.17192651958907   12.06686869838551   15.83417256560697
C         1.59269935314152   12.49521768623854   14.69850359521302
C         2.90197347124717   12.96654644003058   14.76514317998083
H         3.49233740021061   13.02542451121690   13.86211290292845
C         3.45839580297412   13.35544157430428   15.96178917422431
H         4.47884320561409   13.70646586101863   16.01173823961288
C         1.00090105507049   12.04742891569390   13.40136170152538
H         1.00110828000459   10.95813004779068   13.35193483485378
H         1.57125067378316   12.42633206128667   12.55729125567744
H        -0.03069248606276   12.38108682930432   13.31299282131210

