42
CSD_code = LIXKUA | q = 0 | S = 0 | Stoichiometry = C15H20Cl2N2O2Pd | MND = 4
Pd        5.76770586055047    8.70919957217215    2.84121089793107
C         6.53983671962362    8.18653304132986    4.61213625154289
C         7.49662239683849    7.25568433245553    4.99446401610101
C         7.92381267675587    7.09349166973117    6.30292739609621
H         8.66471146418684    6.34786124518572    6.54745128940556
C         7.39440958862775    7.90140484514509    7.29104871136970
H         7.70791820243937    7.79011725867665    8.31630175851812
C         6.46724418716036    8.87248846719014    6.94451495321542
C         6.05236906826624    9.02292523740353    5.63105912337825
C         5.05863521275425   10.06396683850107    5.17229770105060
H         5.03326524912417   10.92888176651651    5.85115143633196
C         3.67672426431074    9.40091935808472    5.12367323166258
H         3.66137699391165    8.66040147874932    4.30574041576333
H         2.88061884339279   10.12660244121526    4.98088470959795
H         3.49946551677693    8.88259087116297    6.06330704483910
C         6.76177543892962   11.22181776566098    3.88879264724692
H         7.14018204973162   11.37829105832959    2.87462055591423
H         7.50001754292173   10.65640264710872    4.45989100595391
H         6.61730367875176   12.19747932395176    4.37023870045654
C         4.50125400659745   11.33874971277022    3.16195162047219
H         4.25023447654272   12.19980317501988    3.79356583604916
H         3.59965395054316   10.77139504452458    2.93275341351388
H         4.90829173685151   11.69277413002061    2.21466591679491
C         4.96072284703627    8.50168621638271    0.08438968880704
C         5.85927101271167    7.23063181250632    0.36139255741091
H         6.86950219234171    7.47155831210943    0.01105995541106
C         5.27509523423082    5.97329840016079   -0.30159613837662
H         4.52491439052845    6.28874686181757   -1.02879793773561
H         6.03670469370846    5.39912784225586   -0.82762810303344
C         4.65978540399615    5.16759930700694    0.85413890754417
H         3.65881250123224    4.81024654585578    0.62443218708478
H         5.28345016012600    4.30539148384972    1.09707146879709
C         4.66097566671698    6.15640102311387    2.02646057025196
H         3.78568950228605    6.81814390612101    1.95719413540861
H         4.68188348210330    5.67334559058516    3.00800738994629
Cl        8.23988042120035    6.26961191047039    3.77235681357717
Cl        5.83583391459705    9.90546844497223    8.18982882404347
N         5.49402360084851   10.48712497646188    3.81969174494739
N         5.87569759789745    6.95532825786021    1.81131677396427
O         4.93479005826355    9.34871655327856    1.02622551488047
O         4.38539377680944    8.58775224335690   -0.98250085811638
H         6.68144441776929    6.35843903093729    2.02210787198078

