42
CSD_code = LIXKOU | q = 0 | S = 0 | Stoichiometry = C15H20Cl2N2O2Pd | MND = 4
Pd        7.19877548381677    3.31345379649980    2.08990857652569
C         6.99022163681979    4.80511427065754    0.75235273394507
C         7.70796778086124    5.20458516445591   -0.36863466171402
C         7.39724831323930    6.32753081211922   -1.12014725423253
H         7.99153843657882    6.58602395791337   -1.98319839456624
C         6.32065080661926    7.11127391778496   -0.75488972256603
H         6.06058526920639    7.98832508901914   -1.32491993530646
C         5.57683956713804    6.75170106460539    0.35790147777224
C         5.90264299466804    5.62794332714655    1.10073718247541
C         5.10517531826774    5.16440818856968    2.29648337085674
H         4.56367340308535    5.99435846576616    2.77324667407530
C         4.10918922329323    4.10854710239894    1.79994124009546
H         3.58532191491129    4.49614820729149    0.92915153380615
H         3.37068318147933    3.85602092217774    2.55596355878870
H         4.66529253687842    3.20331653672450    1.50070508681665
C         5.40757189463904    3.89129173175276    4.35748607222125
H         6.15989211564140    3.55067006877296    5.06894302530871
H         4.87506277183515    3.00894028091907    4.00429785860930
H         4.71000969277383    4.56999409087494    4.86335819326138
C         6.95805244661425    5.60382110877057    3.79618057285241
H         6.40021822125084    6.27737592807837    4.45932194584559
H         7.40248585319581    6.19429238698358    2.99283327392894
H         7.75619979647359    5.12331461921874    4.36968190392248
C         7.65419011497359    0.65616299188065    3.08860791699351
C         7.99761548190542    0.62132562496478    1.54305993353175
H         7.09848750676535    0.28672784801096    1.01159612312495
C         9.22297904597417   -0.26485895966200    1.27696597747822
H         9.10734416153845   -0.85345949621435    0.36698701913836
H         9.34090803849411   -0.95222613430902    2.11564234869329
C        10.39570958459263    0.72449861048813    1.16246824488085
H        11.22893726439077    0.45442982614879    1.80685474983488
H        10.76088719747498    0.77246617808436    0.13517483972142
C         9.78369545798924    2.07420372077013    1.56263340454214
H         9.79137620645205    2.18398825111759    2.65493100902485
H        10.28625134267216    2.92956822038116    1.10594841250207
Cl        9.07449839787411    4.26804413318576   -0.88175471125970
Cl        4.22043162961936    7.74047985861735    0.80574267587560
N         6.07346545114339    4.57174177783000    3.24517190399658
N         8.38506126701303    1.97768763029536    1.11099250406119
H         8.38941279890103    2.01403639113480    0.08676544434887
O         7.25909749258216    1.77889450616786    3.52176036070944
O         7.78215290035711   -0.36506201739245    3.73404753007904

