72
CSD_code = LIXMUD | q = 0 | S = 0 | Stoichiometry = C30H31BN6NiO2Se | MND = 5
Se        3.14047559982666    5.19608635404611   17.00771150847040
C         4.93047987725858    3.78165663779505   12.60795918792649
H         5.90780408202298    3.61379152446512   12.15842215798864
H         5.05249686913605    4.30490509313526   13.55753746421742
H         4.34297129711283    4.40904571647231   11.93800139889656
B         2.47828292537198    0.36258348100729   15.20777636259528
H         2.36085231892412   -0.80478626578179   15.09693968828186
N         3.70015894400002    2.19750776291468   14.03158828124788
O         2.38195104599383    4.47900357372399   14.32656632501617
Ni        3.08530953150442    3.31960027527468   15.57303069126256
O         1.03435375365256    7.75177005622896   13.80015532404104
C         4.23415936282018    2.49146504070311   12.85229716522043
N         3.15873568103317    0.97358658435519   13.96555290195876
N         1.09839485098284    2.34843276598847   15.77379206600211
C         4.03375137447740    1.41026385232557   11.99089700397237
H         4.34940184131649    1.32868344551296   10.97044749037243
N         3.80416521168960    1.98136604582207   16.64357329259144
C         2.86286629000612   -0.87365703371155   12.31074843527540
H         3.17586465093986   -1.06766704353165   11.28829214232242
H         1.77628139056042   -0.92174182878780   12.36129263159222
H         3.26464268238922   -1.65052474749437   12.95845293906961
N         1.12593217301078    1.05195439379439   15.42313199913849
C         3.34490147375340    0.46700373522926   12.73387393462331
N         3.38084922196247    0.72525750717368   16.40752028597866
C        -0.57795945561315    4.08863164748982   16.28446720990492
H        -0.68949798494342    4.71151343802538   15.39541464262494
H         0.18015992053228    4.53636858134552   16.92612475274610
H        -1.52828459369661    4.07117262981392   16.81329658012861
C        -0.12899025252736    0.57330047797844   15.32800829840980
C        -0.99260263170241    1.60970593787658   15.62845195942602
H        -2.06332143940731    1.57790804535856   15.65113758219447
C        -0.17205589384243    2.70898398978030   15.90208325588105
C        -0.45293311281830   -0.83188802391982   14.96585653734730
H        -1.53090071886445   -0.96994281011095   14.97356571226251
H        -0.00292603584048   -1.52555329210400   15.67405518286969
H        -0.07467096939574   -1.07250184313284   13.97381692571136
C         5.38728318019067    3.13097899899807   18.19483240663183
H         5.70042169940359    3.78101706867486   17.37720558932477
H         6.26385660981144    2.80489305155926   18.74901965640329
H         4.74928289248212    3.71130335166807   18.86559328732253
C         4.76867929522817    0.63159494124116   18.11367042574961
H         5.37253021104364    0.27642554990420   18.92376123386051
C         4.65893011190687    1.94804619969533   17.66614967713551
C         3.94299172837808   -0.11361365472243   17.29279469849122
C         3.68524850871591   -1.57640881075665   17.33826107360856
H         2.62069435905125   -1.77435368880120   17.44503457849806
H         4.21266895565985   -2.00923172856035   18.18414964495388
H         4.02958178760555   -2.05803444393075   16.42478999226699
C         2.15765857710497    8.33404652470210   17.23440259317574
H         2.65026417489820    7.79657060499353   18.03266400747499
C         1.76716895767609    9.63888713463958   17.38279641264547
H         1.94829398580678   10.15645378433047   18.31219413794138
C         1.13034489460682   10.30832020511865   16.33272704308521
H         0.82483423780418   11.33556810022318   16.45933367854830
C         0.89121061289612    9.66766549281330   15.14196792176889
H         0.40152859264029   10.16451412737873   14.31917028362284
C         1.28827851638554    8.33580629731349   14.97799090702974
C         1.92912452339581    7.64903805176215   16.02912577500008
C         2.29970333807121    6.29920649759389   15.79927864889683
C         2.02375390250975    5.69121724817848   14.53408836016522
C         1.38013588088661    6.46508274912217   13.54829403202160
C         1.03426698184058    6.01143353438707   12.21497904113006
C         1.15177620172909    4.66993614963529   11.82942472724174
H         1.49756738781028    3.93907018782675   12.54073981728905
C         0.82207073756857    4.27968394763795   10.54699020652132
H         0.92160088282195    3.24069883725302   10.26834773776473
C         0.36668216316225    5.20491623286444    9.62143007488579
H         0.11232574856527    4.89402571018797    8.61887258942683
C         0.56511842327515    6.93646783651614   11.27012546599870
H         0.46736377098795    7.97420856921167   11.54950886518787
C         0.23796976645804    6.53493335187597    9.99256520845800
H        -0.11841087980733    7.26284628428080    9.27798088294293

