72
CSD_code = LIXMIR | q = 0 | S = 0 | Stoichiometry = C30H31BN6NiO3 | MND = 5
Ni        5.84720222895440    4.50956361129226    4.44244029700712
B         5.41536866433202    2.80502983813316    1.93731834094207
H         5.41666417381375    2.12904880829873    0.97246959865777
O         5.16637815991907    4.28803698447947    6.22902197467190
O         5.49829744021976    6.35584004442661    4.71888675767214
O         3.87473925556444    7.89405887091344    7.55095640155969
N         6.68265640606884    4.80494044160331    2.79244397312440
N         6.29470786701253    4.05988236616664    1.74498533975796
N         6.36318299712823    2.72333715590029    4.25782416836242
N         6.01924932727896    2.05833940106013    3.14549968470705
N         3.85320355624062    4.06080910698760    3.39300510373061
N         4.00784297995055    3.26458692304117    2.32158332608385
C         8.16032812357728    6.73267776071617    3.26546654617792
H         9.22505934166024    6.78569366723110    3.04370547845704
H         8.01655512208713    6.41360114333978    4.29760617082888
H         7.73373503050269    7.72773849839416    3.15124631015525
C         7.49154966837012    5.76634636847959    2.35549317180240
C         7.61704064703943    5.64277553887334    0.97051841950663
H         8.19659069859420    6.26307651015526    0.31736206824622
C         6.84125119750086    4.55188465905285    0.62055721468027
C         6.61120444839840    3.97634507383143   -0.73020200308312
H         5.54860182742657    3.96791607508213   -0.96441643312306
H         6.97619850937743    2.95202449816686   -0.77994630351134
H         7.13294798639550    4.57302087055223   -1.47348205557464
C         7.47053063073916    2.29282629522228    6.42509677511021
H         8.40039538090529    1.76894322053625    6.63682183912157
H         6.76016335981528    2.07457286399246    7.22110125655761
H         7.65091824708156    3.36844372396720    6.41288001229581
C         6.92383812764304    1.86909067670518    5.10908817797520
C         6.92745378482891    0.60107218325751    4.52544403198013
H         7.30823176098744   -0.30497142400895    4.95139144551300
C         6.34299709820749    0.76161723294341    3.28112871398692
C         6.08750936675466   -0.26670925825643    2.23921708077112
H         6.62442661847889   -0.02844735752190    1.32287187409312
H         5.02590131778291   -0.31577199235813    2.00510470643768
H         6.41585795526233   -1.23829740487883    2.59830107551812
C         2.01146499302586    5.19110944854779    4.59430330211204
H         2.48788087380256    6.17040707786486    4.56778270811856
H         2.20199670878860    4.74700649194847    5.57131408817051
H         0.93874569478161    5.31457723532661    4.46744196214265
C         2.55901035826304    4.32497658368198    3.51414742554380
C         1.85477645064564    3.67749199081604    2.49248031562220
H         0.79724235603999    3.69514381798336    2.32086385037115
C         2.63581462652087    2.15953829271287    0.54700283719496
H         1.58135543006825    2.11051651072831    0.28865390942087
H         3.00045956695682    1.15030768876669    0.73069099003168
H         3.18691718106405    2.56736941904666   -0.29866718654887
C         2.81313459842784    3.01183963676720    1.75272255156194
C         3.81453174600518    4.45005438967274    8.80455170681057
H         4.12953375905164    3.46747458250556    8.48825273449123
C         3.17720971132781    4.65375028986728   10.00061574183302
H         2.97747335811328    3.82364811504180   10.66079772645641
C         2.78009117642456    5.94288006288199   10.37120280151524
H         2.27877623215908    6.09502709556304   11.31511999596552
C         3.01754083442097    7.01570975927778    9.54813573639180
H         2.71353166157050    8.01434517386061    9.81988743440620
C         3.66720859757524    6.82317232950292    8.32121954586843
C         4.07344787705643    5.52965669730437    7.94528701006342
C         4.73381119320714    5.38528808063680    6.67971878169412
C         4.91561454746023    6.56428249962567    5.85825193223498
C         4.47937778079750    7.79876823643296    6.33071643177977
C         4.61036459988578    9.06810716870504    5.63741615087903
C         5.04585791768515    9.12776500994582    4.30926902295413
H         5.26965977592725    8.21023265638485    3.79012244989736
C         5.17971811199098   10.34609398857006    3.67368076826603
H         5.51575229517717   10.37769554198535    2.64711362948824
C         4.88242943936453   11.52515584395663    4.33855476371171
H         4.99206429778028   12.47587688222353    3.83759721079815
C         4.44115504231762   11.47676183516636    5.65171599449454
H         4.20502940996093   12.39188385122022    6.17579532903215
C         4.30438212206420   10.26502575205661    6.29671635857321
H         3.96386036835880   10.23371698773573    7.32023344840927

