72
CSD_code = LIXSAO | q = 0 | S = 0 | Stoichiometry = C23H28F6FeN6O6S2 | MND = 6
Fe        8.62619780294388    2.74364310574588    4.92427321670569
S         9.89097775241775    3.44174533473735    2.32123798260893
S         7.24262628255882    4.28176239685836    7.09568943103490
F        10.78426555129365    3.00083799761553   -0.19710338057941
F         9.88412500100261    1.30430083499246    0.77839744270107
F        11.87418580045887    1.93009801429497    1.32162035739494
F         6.40631889370850    6.38670661224794    5.62063371343278
F         4.80273571125265    5.31159305917523    6.56574322514673
F         5.78301821454383    4.47793492809441    4.84711131688766
O         9.93057968315007    2.46290240571895    3.41308758383288
O        10.76458095574479    4.56657695528138    2.47525060237423
O         8.57999192096593    3.71957692712167    1.79669721904722
O         7.35060012613362    2.97275959280386    6.44246025412563
O         8.42588439467417    5.09947199433034    7.01171993229160
O         6.60630433843865    4.22783424062685    8.37257777909463
N        10.77925912921416    3.92222886130702    6.62014761220333
N        10.05328640548737    2.94392799971259    6.11952662560265
N         6.45981671979107    2.48622210393158    2.87368114149749
N         7.26916771888726    2.05476912183392    3.81759840372083
N         8.81495947672986    0.99844273230540    5.36879709638697
N         8.51580706705155    4.47628690499491    4.45408668689882
C        11.69173053703403    3.46949927079943    7.50731852908066
C        11.55972265258689    2.09455401058041    7.53653093936138
C        10.50784396100560    1.80564077583973    6.64998623742067
C         9.78408216261148    0.63842521631904    6.21443187009677
C         9.97050961804841   -0.69418115322216    6.56767456722719
C         9.12103059969886   -1.64612704754233    6.02221836384751
C         8.12424759951222   -1.26094504642219    5.13698708111224
C         8.00303885773607    0.08911950746998    4.82381607187933
C         7.10880166717563    0.72993176515117    3.89329542352612
C         6.15924998279026    0.32123863574550    2.94166676999612
C         5.77913259253419    1.47856165131741    2.28928055449547
C        12.57122011346809    4.41194976479320    8.27438349465657
C        13.20104758924023    5.42298587956755    7.30831003317995
C        11.69234825309979    5.14509947769170    9.29879510209284
C        13.67531996306495    3.63675386485246    8.99655831488780
C         4.87670565165959    1.72361174682097    1.11681516434896
C         5.76776095444927    2.05891989453770   -0.08878012481707
C         3.94564255095372    2.90268014313050    1.42398237278362
C         4.04268677495123    0.47600258197164    0.81835337751095
C        10.66481500018464    2.37336471086624    0.97581923207446
C         5.99078012484869    5.16629114001796    5.98187026409866
C         8.66450722694075    5.54031476157859    4.04263801824660
C         8.86395333721041    6.86001678672142    3.53935824900199
H        10.46720742778865    4.86892733229360    6.46449187997799
H         6.54355217676907    3.44266417622348    2.56753322657470
H        12.12818813792508    1.39410141451776    8.11124127090374
H        10.75786782617146   -0.97192640257874    7.24898879292439
H         9.23905116047822   -2.68687658653450    6.28234654078078
H         7.45856140828409   -1.98415294447552    4.69541112908105
H         5.81679446338698   -0.67567123533330    2.76049270406554
H        12.44312551492639    6.05271223388493    6.85070045182097
H        13.74541971655375    4.90925973257491    6.51958360272101
H        13.89631212556249    6.06361739798280    7.84589402419414
H        10.85414483440143    5.63691986246562    8.81119423839740
H        12.27984158288668    5.89160734152582    9.82812542780839
H        11.29170100578739    4.44172047104481   10.02462677155765
H        13.24974961556581    2.93390144515864    9.70740676518169
H        14.31605565754986    4.32566420869793    9.54133708209308
H        14.28596031359491    3.08823192755920    8.28395442571719
H         6.43494462681628    2.88646102515596    0.14037097550854
H         5.15334637174364    2.32547951500321   -0.94551658496838
H         6.38040465073032    1.20082775108173   -0.35420834198201
H         3.38128403031308    2.71559851123429    2.33435707898335
H         3.24319428138438    3.04181810889478    0.60549123235613
H         4.50789961332479    3.82355553860478    1.54990754522911
H         3.43285567701884    0.20925757896714    1.67778929979445
H         4.68446084653629   -0.36455817376289    0.56963997947155
H         3.38470758062503    0.66363708963387   -0.02651346169076
H         8.93018133586499    7.56268071828634    4.36919173583992
H         8.03706696750816    7.14115222241780    2.88879981975090
H         9.79175433324465    6.84965927714623    2.96621823938316

