92
CSD_code = LIXWUL | q = 0 | S = 0 | Stoichiometry = C40H48N3Y | MND = 13
C        -0.82600979096451    3.77160745779940    6.84587329545739
H        -0.20050617662624    4.65730470711205    6.70679956468904
C        -0.21628828389640    2.53187649723830    7.19662039397457
C         1.10786480035701    2.12412961611648    7.45709512961594
H         1.96479234493228    2.76470303436440    7.54125634263318
C         1.08228329987009    0.74603139101736    7.57742436057996
H         1.91543370134274    0.09879760998929    7.77411062968622
C        -0.25683674285305    0.34834505913769    7.38739752335667
C        -0.91345638194960   -0.91013055827769    7.25686127097211
H        -0.32196005814752   -1.82925558099746    7.27714969863695
C        -2.67017288875623    4.92635938427975    6.00487584181998
C        -3.18607957260977    5.99012383246223    6.74864159528270
C        -3.73702378330057    7.07094529113337    6.07382938217070
H        -4.12823035454870    7.90503508343810    6.63595352487410
C        -3.78467165162930    7.09771064150376    4.69420183242495
H        -4.20535121819140    7.95062632367513    4.18277697857850
C        -3.30137772066924    6.02501838288267    3.96738660104583
H        -3.35439584001785    6.05009188766176    2.89043762190980
C        -2.74838121217051    4.92457951115234    4.60349939211898
C        -2.80637923561867   -2.12341440100098    6.63046094724287
C        -2.91082816906995   -2.35808411051526    5.25054899353053
C        -3.51454902493477   -3.52889779958278    4.81923734665235
H        -3.58911411478513   -3.73524077290793    3.76326973383513
C        -4.02187861857949   -4.44245974528884    5.72511628633019
H        -4.48329737553578   -5.35288584185063    5.37272095919226
C        -3.94533220034319   -4.18343555354607    7.07910796851574
H        -4.35437805153251   -4.89424599770771    7.78067169381566
C        -3.34303315554450   -3.02555559516658    7.55197784324281
C        -3.15658049190928    5.95943930561260    8.25746341742685
H        -2.77260025406967    4.98290090911000    8.56657636292829
C        -4.56599618222490    6.10995130270775    8.83371397590732
H        -5.23187654476263    5.37004676474103    8.39390824161049
H        -4.97094331759257    7.09879284964343    8.63276458684857
H        -4.54430457841749    5.96334234913860    9.91160829893716
C        -2.22414706441261    7.04093066285125    8.80682387553368
H        -2.18385172788206    6.98462536609925    9.89248879044985
H        -2.57315762709812    8.03217935209213    8.52638890784083
H        -1.21622885232467    6.91054316296183    8.41729021000022
C        -2.22092239826187    3.74489706930282    3.81510331015468
H        -2.20387580181975    2.86960808755091    4.48243716381224
C        -3.10523519009784    3.40170617524267    2.61524814798818
H        -3.00834842499774    4.14403762262271    1.82704936708501
H        -4.14982764268750    3.34416834127412    2.91219162962673
H        -2.80840095045754    2.43946387094186    2.20239360093403
C        -0.78652577432198    4.02119148324229    3.35517164375591
H        -0.41250064824526    3.18823532894318    2.76339575249724
H        -0.12745624360198    4.15645739989658    4.21007946230370
H        -0.75194347596591    4.92294521512172    2.74706165195143
C        -2.35363069311348   -1.35209519817233    4.26623644194408
H        -2.29759460814420   -0.37599043988912    4.77226692358680
C        -0.93529214683577   -1.75557112003640    3.85273832270169
H        -0.93946378151251   -2.74887687315219    3.40832210087915
H        -0.27150875318827   -1.76628874802910    4.71468037849373
H        -0.53919120264910   -1.05063676928905    3.12467266560834
C        -3.24022096070774   -1.18911219487407    3.03069505028129
H        -2.91420920922670   -0.32495397710370    2.45504677606971
H        -4.27811989318713   -1.04116156253075    3.31969096980600
H        -3.18032450908529   -2.05999937403620    2.38284791914972
C        -3.28240562881155   -2.74055486312547    9.03298547722452
H        -2.85192365991093   -1.74408998994138    9.16677048269539
C        -4.68554036158388   -2.72750707897386    9.64289406841099
H        -5.13698914599772   -3.71615955064195    9.61482841289850
H        -5.32663052779160   -2.04144442934197    9.09282952101162
H        -4.63696987620684   -2.40415672103652   10.68059434312142
C        -2.38580723465622   -3.75332219235982    9.74797042832535
H        -2.31701838960545   -3.51106125719203   10.80630038091734
H        -1.38278964369019   -3.74064777003518    9.32567100672675
H        -2.78446635205346   -4.76051787356715    9.65088418601493
C        -5.81920768751296    0.85317629404878    7.47157710377177
H        -6.33888660777993    0.29433825916779    8.23698367494843
C        -5.19982206911765    0.30635841957176    6.33129145527523
H        -5.18813959127989   -0.74069602432759    6.06030913959549
C        -4.77833321760841    1.38214259972729    5.50624119985757
H        -4.44082510107989    1.29323495005343    4.48193435053830
C        -5.16008101913865    2.59081083054721    6.14552249121899
H        -5.11137469155734    3.57919977664727    5.70895716276392
C        -5.79534398890159    2.25707092118826    7.35702107408323
H        -6.29294277522619    2.94960708567284    8.02108648612734
C        -1.17511569219971    1.72788326197043   10.31854552046831
H        -0.12802064460307    1.73398789672510   10.56836099014458
C        -1.98150047484536    0.59627398634035   10.23703531197338
H        -1.66192588391680   -0.40873880238204   10.46309815584797
C        -3.28247775239716    0.98976401046862    9.86430192877957
H        -4.18113620037655    0.40328942618278   10.04009051649114
C        -3.26115554490562    2.43624048966966    9.73620213932662
H        -4.14163066887586    3.07043943680055    9.80784369176595
C        -1.94759955121846    2.85070414042771   10.03759603516319
H        -1.59859293290378    3.87017452046090   10.08454048426572
N        -2.09595636780648    3.79255923315677    6.62383189012507
N        -1.02474076234501    1.44306610058108    7.15841047827702
N        -2.18398111799047   -0.92170553183584    7.03802356077593
Y        -3.17443241153957    1.51042432925117    7.45390815278417

