102
CSD_code = LIYDEC | q = 0 | S = 0 | Stoichiometry = C39H44N10O8Zn | MND = 5
Zn        7.65996683479033   -0.15470728270393    9.21745225836360
N         6.43636368962775    1.19864319794925   10.21900303381887
N         5.68008156051369    3.11558303253114   10.94994986035669
H         5.47643818868425    4.10160291358256   10.99459814034649
C         6.34027112262955    2.48177576576023    9.96706802759411
H         6.73290208744059    2.96723518883121    9.09622573789656
C         5.33747123954937    2.17991512270190   11.88211505277865
H         4.79879150484605    2.42390490756704   12.77370160563438
C         5.81489335777849    0.99347595280911   11.41267962841386
H         5.75080836517496    0.01549044953385   11.84346247822637
N         6.46649655888754   -0.44571840805021    7.60745697098578
N         8.74446490934044    1.16986744847925    8.13115542573057
N         9.06431328918443   -0.05073815646828   10.68246568132129
N         7.05735252012648   -1.93426388114007    9.96804089308639
C         5.34415998152476   -1.19950046377858    7.67303767421104
C         4.31377880294756   -0.63937899789417    6.82148234430150
C         2.86016826310718   -0.99115418745310    6.83126145965606
H         2.29266846975719   -0.05483114197505    6.82026273221725
H         2.61005492053554   -1.49510878421992    7.76573027883249
C         2.38733084477680   -1.84632051425651    5.65316409117324
H         1.34396735847937   -2.11579672996368    5.79822001310976
H         2.47342180483215   -1.30175763709773    4.71838595389098
H         2.97236276132764   -2.75957562478978    5.57925885506486
C         4.89795991335952    0.40325732044618    6.15198270015914
C         4.20216874015495    1.30388473103700    5.18521159275508
H         4.61236377254691    2.31353302296820    5.22765626849986
H         3.15408061911838    1.37209542581035    5.48994568276847
C         4.24556655445967    0.79354087597029    3.74065511921794
H         3.60381392344833    1.40916673100516    3.11531377821984
H         5.25589554112289    0.83627062119757    3.34223192185696
H         3.90787724674021   -0.23698815196553    3.68538380363552
C         6.26178741701087    0.48522638883794    6.64171464857917
C         7.28912439077361    1.32687625903648    6.21563695991496
C         8.52734350813071    1.51623332786267    6.83858418464225
C         9.69312238207462    2.18928792384347    6.29795996915576
C         9.95414362754166    2.53168837037211    4.86812273976134
H        10.85646701786586    3.14157018546573    4.81078006682705
H         9.15232089797950    3.13144069270230    4.43960735903023
C        10.16514397925631    1.26643897194424    4.03074329227389
H        10.42781513168636    1.53882277074265    3.01189344998408
H        10.97080213470379    0.66794350490037    4.45010681696178
H         9.26444879126269    0.65865038995838    3.99777314517845
C        10.57803543450625    2.31213295652174    7.33523187477109
C        11.98815465894799    2.79565080490891    7.24939555719111
H        12.20099845856749    3.56142310386881    7.99417832325596
H        12.14428691524563    3.26110304868066    6.27565264506365
C        12.97519334274995    1.63306356502493    7.39664541099478
H        13.99155279277298    1.99434343373324    7.26284661711274
H        12.90563908709190    1.17245493677906    8.37890243360587
H        12.77493840932354    0.87242633777184    6.64518472887533
C         9.92894803139789    1.72447173274004    8.49056383612573
C        10.33650569990525    1.79658826848875    9.82531818767943
C         9.82259000515403    1.05378062678757   10.88852632940720
C        10.03467194480342    1.25449043839388   12.30777118475582
C        10.68552898483086    2.41019576545650   12.99637434457273
H        10.09268690380992    2.65839207906146   13.88094771059336
H        10.68601786071832    3.29766170568386   12.36455506691604
C        12.11611018343597    2.08521417538577   13.43698462612638
H        12.52699336798138    2.91643407816074   14.00444601210175
H        12.13129714325457    1.19268468886088   14.05740208859656
H        12.75001913522697    1.91156274360315   12.57094143507497
C         9.45257436194693    0.18750307570694   12.93639813771821
C         9.27647670489084    0.03755638926202   14.41225525815432
H         9.89494118231257    0.78086621154220   14.91532598241327
H         9.61378241030385   -0.93707540540118   14.76245165783436
C         7.81474085002242    0.26510471340485   14.81408285970810
H         7.72290639797041    0.23863578378449   15.89683403894196
H         7.47464054911079    1.23661938635165   14.45898087173564
H         7.15952557454808   -0.49764371395717   14.40178415446148
C         8.89834072388329   -0.64499657006810   11.88831413703788
C         8.34209297395178   -1.92171836334660   12.00175875643307
C         7.61443911269008   -2.59088220155650   11.01532555956578
C         7.24336258843126   -3.99307655173654   10.98330821299514
C         7.83877845015463   -5.09167898912284   11.80039930876977
H         7.29250335589047   -6.01484131370834   11.60425076075314
H         7.74422470306298   -4.89801339871149   12.86814230624233
C         9.31091415279178   -5.30923768453697   11.43496697591714
H         9.70718639883824   -6.15459390765473   11.99155152864723
H         9.40713382417397   -5.51789307114733   10.37161873560898
H         9.91499852334847   -4.43616262279179   11.66895061831957
C         6.36293117157287   -4.13050677827849    9.94522826217545
C         5.80773199159778   -5.41142247885836    9.41604717813187
H         4.72565439673826   -5.36625756715097    9.30173129146788
H         6.00909713290255   -6.20706974445700   10.13418445715141
C         6.46228447599595   -5.78231933643406    8.08110267078060
H         6.08972818808092   -6.74615490239853    7.74394767190388
H         6.24474572541851   -5.04640035967430    7.31103295364449
H         7.54189577946757   -5.84871842600060    8.19749261430540
C         6.21535744082334   -2.80857200586332    9.36354218316675
C         5.29541159884107   -2.39201387070304    8.39972971468367
N         7.05167696519633    2.13852194419934    5.04051638522422
O         7.04077513326040    1.59369455515269    3.96353987295296
O         6.89339143427161    3.32743462213824    5.22936318725841
N        11.36934569793103    2.76153063591056   10.13197122102271
O        11.07938904931532    3.93354614679287   10.00521908069710
O        12.44569428773406    2.34222808659056   10.48433648870173
N         8.51623384954968   -2.60453746323313   13.26213280722443
O         9.64255855770115   -2.88328384197922   13.60350038642753
O         7.51376216738265   -2.84428623824907   13.89975629178452
N         4.19992196732352   -3.29176472178378    8.11498899942885
O         3.41095594308834   -3.51154980846807    9.00915572408851
O         4.15385182265825   -3.77712623553118    7.00853058726144

