105
CSD_code = LIYDUS | q = 0 | S = 0 | Stoichiometry = C40H46N10O8Zn | MND = 5
Zn        3.84319948020400    2.36624990734836    1.06520423668061
N         4.35780213668014    0.80899348997078   -0.22993700809329
N         4.51153902353986   -1.31066693384842   -0.75093143237280
H         4.30974168295896   -2.29730926669844   -0.78603131838378
C         3.83818649814339   -0.38491415692584   -0.05454383532985
H         2.98350735190847   -0.59890567207136    0.55416220814537
C         5.51983369507939   -0.66761547281065   -1.41256249961625
H         6.21089353924097   -1.18203948805540   -2.04701538624113
C         5.41664988124905    0.65516306567046   -1.08292250163117
C         6.25500012910525    1.79089717401708   -1.53851780286288
H         6.86265358587320    1.48980075602762   -2.38721682489955
H         5.62469707249040    2.62926439521448   -1.82374648917624
H         6.91404263909314    2.12668046024521   -0.74021911461495
N         4.98594704729802    1.53338929381481    2.52930823316314
N         5.25992002091623    3.78976231173242    0.82321532328256
N         2.60915528417691    3.44479297561634   -0.11012654012963
N         2.20857234553084    1.51608269766834    1.92147257386239
C         4.66360694597461    0.34588826946809    3.09594260981903
C         5.85808676302692   -0.45517478682461    3.29008110372435
C         5.92762376591072   -1.89609690600245    3.67734086801318
H         5.36046884008214   -2.09885317780435    4.58402845493096
H         6.96422743495256   -2.15347958526828    3.89760874415645
C         5.43460249548565   -2.79365574402520    2.53717967732355
H         5.55609903691324   -3.83840941097100    2.81132816418089
H         4.38265562536453   -2.61965409374054    2.32223538568400
H         6.01281530369232   -2.60134316591943    1.63476281908206
C         6.90976095836300    0.32708906163132    2.89705801008761
C         8.33066742584719   -0.10684488038731    2.74861997509434
H         8.46335698315291   -1.06563322644552    3.25105929430508
H         9.01858736475406    0.59022567043472    3.22458535197818
C         8.69525587387368   -0.27769606022068    1.26957147466750
H         9.70132333628136   -0.67952870127290    1.18224729954332
H         8.00273450030141   -0.96554919333545    0.78747978878564
H         8.66242319138260    0.66867999658306    0.73598086714836
C         6.33719824106885    1.59350810729550    2.48099373284810
C         6.99699856297942    2.77718502290428    2.14311359340688
C         6.42208790596227    3.88475641514577    1.51306431658525
C         6.98013609836412    5.21630946170048    1.37509556743378
C         8.10821067442001    5.79420348301205    2.16386411731898
H         8.33692014969584    6.78843577710522    1.77864925436589
H         9.01803917715633    5.20449909590172    2.05645706927742
C         7.73649975092504    5.91816610100672    3.64508239388919
H         8.54548334854682    6.40004631343311    4.18800160401041
H         6.83660983821717    6.51896273612522    3.75744394753845
H         7.55796257102108    4.94532712402392    4.09638586962616
C         6.16773044641475    5.88033277766114    0.49668026053215
C         6.23725222326297    7.32793330996284    0.13899788688187
H         6.22787429198743    7.47848063462725   -0.93978080439700
H         7.18213473153097    7.73608503454662    0.49945380063165
C         5.08915120125654    8.10823213351730    0.78785430979361
H         5.19476332179770    9.16767965659165    0.56934090016262
H         4.12182907180638    7.78017782451584    0.41553071553955
H         5.10577290915593    7.97287819185804    1.86715172745800
C         5.13156731806915    4.93875711180968    0.11462788729319
C         4.18280221302693    5.07264858508228   -0.90168859474518
C         3.05838364468566    4.26502956470665   -1.09081963559391
C         2.14847038387585    4.23780100493107   -2.21852648612535
C         2.37413378510778    4.78924499325059   -3.58832569169696
H         2.58175997111223    5.85853515675731   -3.56382029055837
H         1.46137648777058    4.66104870132701   -4.17005497647390
C         3.51255168901084    4.04743885426240   -4.29829828238792
H         3.59345792004757    4.39588243914355   -5.32471337224342
H         4.46986935925355    4.21426344118376   -3.81118702443997
H         3.31409381539708    2.97712538179287   -4.30963351890040
C         1.09236773575072    3.45510033931079   -1.83701111583874
C        -0.06981871162165    3.08876179454475   -2.70164131608364
H        -0.54224904972185    2.16983628267243   -2.35607729828355
H         0.30518617342902    2.88659469815538   -3.70858326298034
C        -1.10989620210945    4.21053150889991   -2.77877855162201
H        -1.89597403840317    3.93865513867536   -3.47869887918565
H        -1.55946956825583    4.37974446893416   -1.80340127005773
H        -0.64922751100386    5.13816252394273   -3.10888405244730
C         1.37848364325399    3.01845250902761   -0.48516402412419
C         0.53810630905451    2.34739851492297    0.40456156417440
C         0.91196117785007    1.78474360282318    1.62771126055925
C         0.04765033656101    1.29393869965961    2.68496086514896
C        -1.40403020151219    1.58991855508265    2.86773375930323
H        -1.78718922153554    0.98502941975567    3.69042223097703
H        -1.98685743568541    1.31843035871398    1.98859849936186
C        -1.62203180494808    3.06851576979670    3.20515640453605
H        -2.67583748765762    3.25017783489290    3.39954903724162
H        -1.05299892379864    3.33949809741637    4.09183523526018
H        -1.31191037769055    3.71358422579739    2.38682007025740
C         0.86120560631790    0.63330902148952    3.56558289679683
C         0.47556986530572    0.07212472257074    4.89422657638809
H         0.79351831157884   -0.96451651245630    5.00256414318113
H        -0.61184940122477    0.07197612964964    4.97643187929383
C         1.05122840450589    0.91690364159225    6.03531498788468
H         0.70219837580740    0.53214841789717    6.99007356827300
H         2.13823209260750    0.89641683337562    6.03864082236469
H         0.72731825413945    1.95077586491161    5.93782497322236
C         2.20377618909852    0.73528589092121    3.02881280212569
C         3.34793779500055    0.05521947598844    3.45991643279965
N         8.40871911481917    2.85617188541509    2.43448084432103
O         8.75357815456718    2.81218301503461    3.59254423051605
O         9.15670712112138    2.95199646411955    1.48494069221071
N         4.38979524344086    6.14188287046862   -1.85257319301283
O         5.36781132591411    6.06156080846229   -2.56299844186239
O         3.57564332348928    7.03499249653622   -1.88320677894527
N        -0.85349863336235    2.21399725026048    0.03021519153352
O        -1.52414784672000    3.21817709810086   -0.00050708667201
O        -1.25213264137041    1.09499284530620   -0.21540915436182
N         3.12938281888281   -1.09207449098919    4.30906750160451
O         2.53835224561025   -2.02667982429648    3.80918443431137
O         3.55313107675492   -1.05938228538315    5.44002153450118

