69
CSD_code = LIYDUV | q = 0 | S = 0 | Stoichiometry = C32H31Cl2N3Pd | MND = 4
C         4.82690186164513    6.49721249819524    6.55153560923616
C         3.11383479261708    5.10526995044179    6.32353914439095
H         2.08658054334591    4.80556977627010    6.29601410441724
C         4.24636975525825    4.38505339551475    6.15109663931898
H         4.39132968323061    3.34369070171073    5.94699344685484
C         2.51590809593918    7.46674202244186    6.78545440553421
C         1.41888892533614    7.37985404139605    5.74287052113296
C         1.53508200962155    7.49167768780013    4.37549345591838
H         2.49746134888951    7.65635204680438    3.91337881446772
C         0.38194390918863    7.38650532886761    3.60694532691137
H         0.44801000641643    7.47045443524651    2.53253354120422
C        -0.85120706286624    7.17736887984810    4.20435856531518
H        -1.73467745863733    7.10273177552736    3.58719911039104
C        -0.96827721949616    7.05880598280599    5.58147426174531
H        -1.93182736794083    6.89203006065462    6.03908791519736
C         0.17653334096758    7.15688016315425    6.35331662988392
C         0.38010529878350    7.04383414470592    7.79258050810481
C        -0.51031192156464    6.80470317329306    8.82482535530675
H        -1.56610037371461    6.68848792895361    8.63033889832821
C        -0.01490170042806    6.71575709724936   10.11746752628238
H        -0.69580922499813    6.52895498543539   10.93523230709819
C         1.33951973453717    6.85887661873111   10.37608296711238
H         1.70114543418461    6.78022785904582   11.39024456620246
C         2.24038566614518    7.10494884703883    9.34654805483901
H         3.29669171922486    7.21770376126927    9.54500445681912
C         1.74646507290384    7.19915088382728    8.06481557431483
C         3.17238446891719    8.85939732200785    6.79680677833527
H         3.87802380876859    8.91280676954319    7.64275762219962
H         3.71371085210812    9.00219672702190    5.85070106887128
C         2.13847629018837    9.96944290255903    6.95853541874300
H         1.42378066987086    9.96029476109526    6.13842059431455
H         2.63603636669092   10.93576538956719    6.96777303977146
H         1.59292486986105    9.85456217111282    7.89287046173868
C         6.68711118619355    5.01864646347532    6.13047443307273
C         7.47864882723260    4.75230818925860    7.25314186543398
C         8.85205231920211    4.63630348050083    7.07100103678430
H         9.47737599851808    4.45020428072097    7.93285680330925
C         9.43057149728938    4.74696935436072    5.81540098884040
C         8.60735844665133    4.92698959191072    4.71120415317152
H         9.04640173282882    4.97576124861583    3.72537820201854
C         7.23319223054007    5.05813688529232    4.84214363991890
C         6.86225926669967    4.54983642104643    8.60139007850181
H         6.49927647534035    5.49762310103120    9.00382293762415
H         7.59182800546857    4.14174861766514    9.29569037716896
H         6.01282847784293    3.87070174443457    8.53943848874577
C        10.91517911227896    4.64458567298979    5.63400316502235
H        11.16187398144401    3.77862945159892    5.02064965649696
H        11.42082228678453    4.54597725245660    6.59134559867865
H        11.29598669989001    5.52910296287096    5.12486731372278
C         6.36261335965109    5.24823068069813    3.64134865251014
H         6.90243564742783    4.99007270852585    2.73460437552627
H         6.06582584720661    6.29656237918845    3.57781559585298
H         5.45979882430994    4.64300907717857    3.70359255625413
C         8.82102308074833    8.76594854213532    7.13659605651466
H         8.93194264210642    7.69428458360758    6.95622572557127
C         9.91686844873474    9.58766145878697    7.33112545807165
H        10.91312186571398    9.17479033561330    7.30961306634744
C         9.70750922089947   10.94123363371932    7.55254803513306
H        10.54171066934659   11.60844253548215    7.70865261087476
C         8.40680606569941   11.41969656421721    7.56941026569104
H         8.19947355155617   12.46477669045221    7.73688237103115
C         7.36553661516770   10.52977997822638    7.36653376217618
H         6.32784433285373   10.85628842246779    7.37011290350609
N         3.48968017549675    6.40551989024724    6.56010176207080
N         5.28859903258014    5.25925746428354    6.29548990867034
N         7.57526877982827    9.23519786434140    7.15693400976888
Cl        6.22330957051590    8.46684261096066    4.63892112846423
Cl        5.92935854091768    7.77464880569869    9.14924443247033
Pd        6.13402499007320    7.92012096683772    6.85994189466240

