113
CSD_code = LIYDIH | q = 0 | S = 0 | Stoichiometry = C52H48N8P2RuS2 | MND = 6
Ru        4.65432046928910    4.71546374018710    6.83622826109451
S         6.01698596989259    4.50196014018244    4.77320841694195
S         4.19663181252782    4.86110241699228    9.26506818713557
P         3.58169626302195    6.48523091488392    5.86733608958458
P         3.02119799222002    3.12008651958424    6.64540586983728
N         6.43869180514017    5.83678667981079    6.89247945219817
N         8.71893457053941    8.29211907979839    9.20552757912136
N         7.17552503025422    6.63429997545085    7.66779648920058
N         8.17748374827923    5.99294322046357    5.34568376918005
H         8.62026125543751    6.61061129434315    6.01642647154599
N         5.78157330972857    3.34065371099668    7.98882541204924
N         7.97689365851275    0.19170795516622    5.42106780959590
N         6.63071467215958    2.30612357284208    7.91046925587141
N         5.97961706905759    3.14829999781413   10.30982135583963
H         6.67139018074985    2.43345939989562   10.12648833944557
C         6.98576741871682    5.52333992007041    5.72431498573008
C         8.77317906153630    5.78406039298538    4.05834270557043
H         8.79510567876245    6.71638588818442    3.48742437474180
H         8.17637149184699    5.05074484863734    3.51750063418427
H         9.79185496949506    5.40836298012531    4.16952591922155
C         5.42994378706995    3.69136244260817    9.21651104012412
C         5.60134161533536    3.44561668923864   11.66055261346008
H         6.45520244555372    3.83294765960423   12.22166455781167
H         5.22325910399747    2.55123927267701   12.16116132028524
H         4.81657281808090    4.20083454467277   11.63730081349417
C         9.43789975296197    9.07692592511812    9.97968335868756
H        10.44422958606206    9.27619500436591    9.63077271926382
C         8.97524151272201    9.63139753548607   11.16564798465300
H         9.60974925856438   10.26817324476574   11.76246937997928
C         7.67496801961660    9.34135147246741   11.55549367579613
H         7.27106482334182    9.75093929712441   12.47097457507848
C         6.90759300755719    8.51977590369228   10.75455719752940
H         5.89192174647877    8.26728068528871   11.02061614994994
C         7.46727064568461    8.00536370061114    9.57663320645929
C         6.67834320551617    7.14300935850618    8.73090553655151
H         5.64490490613508    6.95087764525499    9.03746821434787
C         8.70811076751512   -0.89277943578383    5.26483001938560
H         8.85776639681658   -1.20773198808976    4.23937356511326
C         9.26193684332550   -1.60749970742653    6.31744831841428
H         9.85345488957110   -2.49119858963581    6.13463979466114
C         9.02948385108310   -1.15190882927624    7.60880441910046
H         9.43924507001514   -1.67973282189563    8.45895203247219
C         8.26555911245774   -0.01727635165689    7.78726443041253
H         8.04947385198605    0.37521334123638    8.76799858300813
C         7.75193673826822    0.63674674434555    6.65964690323560
C         6.92027392181179    1.81056408734948    6.76607024914569
H         6.54067039798801    2.22646825989984    5.83119831808932
C         4.73552901012167    7.55283128191452    4.91442150732192
C         5.52767649992904    8.40989372987801    5.67832714076234
H         5.35622349538446    8.48365289084370    6.74515004130670
C         6.52702733801544    9.15979153491225    5.09071285829955
H         7.14136852766991    9.80614956420586    5.70091741626927
C         6.74205941996896    9.07288469965074    3.72435497019688
H         7.52623485713999    9.65460409084443    3.26115163265582
C         5.94422255687033    8.24363048058974    2.95520235108388
H         6.10089820109363    8.18023633488728    1.88773864200318
C         4.94863295850852    7.48198669300989    3.54358580578666
H         4.33840111864849    6.83731678929624    2.92933101414962
C         2.78885154178262    7.85383193875498    6.79117275335917
C         2.64994699149956    7.82197229641751    8.17155060563224
H         2.98824531347327    6.95704682625409    8.72571226710454
C         2.08125369371643    8.89279692276614    8.84107178456700
H         1.97775164486523    8.85844318218159    9.91594468091860
C         1.64877308690804   10.00182834388206    8.13595384741489
H         1.20512669333180   10.83742571062749    8.65768670254814
C         1.78971079155554   10.04237046878738    6.75655566909161
H         1.45632667038321   10.90927384887684    6.20423101808032
C         2.35977701729610    8.97806980908388    6.08668551905299
H         2.47767473349222    9.00905381156615    5.01134833758944
C         2.29838739890738    6.06467671576351    4.63890035777845
C         0.97344719788804    6.47675094627518    4.73299542010137
H         0.65555622535321    7.11236476948892    5.54707273581683
C         0.05232960120296    6.07190484240511    3.78357073764040
H        -0.97609856148873    6.39328834325254    3.86735768860687
C         0.44191532900468    5.26434809176245    2.72875876088250
H        -0.27861907554580    4.96244391145738    1.98270174270056
C         1.75468529772396    4.83225403923294    2.64117984471323
H         2.06194397194492    4.18802744849409    1.83056612400644
C         2.67160212768532    5.20982781939282    3.60341756249601
H         3.68430999916635    4.82843913520303    3.56791908754392
C         1.38517236525739    3.41741563625819    7.39919082308351
C         0.99306844466486    4.72676152081740    7.63318664767389
H         1.68169699648694    5.52469637189174    7.38351619590248
C        -0.24240605424388    5.00434058485706    8.18913531367807
H        -0.53408896798584    6.02870443929057    8.37123244931377
C        -1.09724943809499    3.96583899121798    8.51640338118071
H        -2.06284466955593    4.17507283815189    8.95355898668298
C        -0.71205132901942    2.65308755417746    8.28845125053867
H        -1.37891174997538    1.84268783646154    8.54660659440469
C         0.52229880681064    2.37479296233528    7.73272709830075
H         0.82349389131475    1.35025063761256    7.55853822428645
C         2.55368419202455    2.43576490756901    5.01707219964855
C         1.23957391019064    2.22427210634623    4.61718522874765
H         0.42013700412409    2.50451330253551    5.26195735804544
C         0.97258395543780    1.66489887239464    3.38012348982278
H        -0.05268237141350    1.50379219293238    3.07896580409569
C         2.00742870492929    1.31402385817186    2.53004309248731
H         1.79195233460126    0.87155246065606    1.56803380734564
C         3.31877331480757    1.54842927618757    2.91018308051160
H         4.13224523186892    1.29673506771683    2.24542312633851
C         3.58866984342651    2.11282613687872    4.14218365992905
H         4.61063887063650    2.33075955346382    4.42198350007126
C         3.48843059164807    1.59031247306680    7.54165507279478
C         4.13593238458517    0.52531693197399    6.92549365982145
H         4.27232798880955    0.51931632162029    5.85409684178285
C         4.60680616272241   -0.53602483412687    7.67888516200006
H         5.11191426671811   -1.35538819482864    7.18757600483940
C         4.44821860788138   -0.54209006037161    9.05335874013361
H         4.82895274578302   -1.36596623634489    9.63971673867212
C         3.79642190002793    0.51154479556706    9.67440148982296
H         3.66146407048655    0.50905955401432   10.74716212122133
C         3.31888486345944    1.57007862880637    8.92638538618250
H         2.81197695585041    2.39370846169562    9.41404048884684

