89
CSD_code = LIYFUV | q = 0 | S = 0 | Stoichiometry = C42H38As2Cl2O4Pt | MND = 4
Pt        2.35460419826510    2.98905708608743   14.57178874842706
As        1.69949718205762    1.99845438350105   12.50831919616812
As        0.30044865980530    3.90805071529887   15.34689355449776
Cl        4.45685275029686    2.42714619749629   13.72394926771065
Cl        2.99779776671995    3.62437117036128   16.72476478388963
O         2.17566550240058   -0.02218540272086   14.44421564588379
O        -0.58553968348350    2.32176948910967   10.16276437121902
O         2.01218294567384    5.98658054652702   14.44781192571068
O        -2.94368235775196    3.43332390777764   15.06731036621800
C         2.54259328887867    0.28228301654947   12.18149172873462
C         2.72873815387251   -0.52411401500713   13.31167467981540
C         3.39537424596675   -1.73580442798345   13.18610433954545
H         3.56667388524478   -2.37081140594943   14.04139658073709
C         3.85353941509274   -2.13887210516483   11.94203037343355
H         4.37186545820476   -3.08221048705369   11.85389908648836
C         3.66080311887723   -1.35062036903437   10.82299328491946
H         4.02587700930271   -1.67327887969535    9.85972506598557
C         3.00946908728654   -0.13329679652920   10.94744962787662
H         2.87185059662106    0.50454612083271   10.08049345883366
C         2.50017104966756   -0.57727726204229   15.71988655980211
H         2.36788822271184   -1.66892420863673   15.67860238566769
C         1.50202917742481    0.02417975673239   16.70022407348138
H         1.56188882193743    1.11247465921443   16.62411825749528
H         1.74904660357235   -0.27059518211415   17.71521993623962
H         0.48678250651390   -0.29632952484947   16.47531370175791
C         3.92787860368573   -0.21475267048049   16.11320405173538
H         4.63916607650976   -0.55896048078586   15.36610561398657
H         4.17746459253543   -0.65720646797520   17.07343360888261
H         4.01217657884955    0.86857375716224   16.18975668994717
C         1.76939240243802    2.77415467935384   10.74166013604476
C         0.65720405957054    2.81754902986060    9.90151165252730
C         0.77677072334584    3.40153137910178    8.63676080962772
H        -0.09852287038064    3.42388274314342    8.00532319924415
C         1.97898369021040    3.92516640595035    8.21143171977168
H         2.04902954788520    4.37256978182617    7.23130925487992
C         3.09389440531492    3.86862188232854    9.03576519298822
H         4.04034838192907    4.26474563343869    8.70118036231046
C         2.98028381171208    3.29708178437233   10.28760671590074
H         3.84041741800273    3.22787573936283   10.94701352357160
C        -0.17995101508280    1.54484687260875   12.45954633378205
C        -0.98049506283812    1.76351319334644   11.34278427207372
C        -2.33210764333552    1.41239516098934   11.38312801305421
H        -2.92901558262249    1.59068736944427   10.50190699919293
C        -2.88355245624852    0.86440272288450   12.52118906047878
H        -3.93001375122326    0.59967987383419   12.53446089316875
C        -2.09988474196822    0.67152318042432   13.64939682940451
H        -2.53017368463350    0.26089944403161   14.55117426780339
C        -0.76422580617279    1.01922548039766   13.60885573637277
H        -0.13291343800148    0.88585768647425   14.48330881957770
C         0.50360618057303    5.65347502592416   16.16863907732688
C         1.46000426223236    6.49069449732762   15.57984889662244
C         1.72752993991062    7.72978113981083   16.14681139695738
H         2.46851036722911    8.38990873758622   15.72341377097074
C         1.03462899144430    8.12819851227544   17.27874982289972
H         1.24986142518270    9.09309511693948   17.71345649894936
C         0.08288801351140    7.30846447502806   17.85580438196632
H        -0.44723284001561    7.62775525264778   18.74028534507173
C        -0.17629815135109    6.06482307804885   17.30093344223143
H        -0.90543683351895    5.40349357985009   17.75734773023218
C         3.18111084840694    6.58138361514035   13.88167285612125
H         3.01612439668674    7.66434731301608   13.77723050921500
C         4.40089180265506    6.29617689741309   14.75078982072314
H         4.25486730975544    6.66396783418363   15.76369245954473
H         5.28368541270825    6.76493235653473   14.32529126985576
H         4.55999619169806    5.21965973072200   14.79905383423915
C         3.34170003114001    5.95114809314024   12.50474148516975
H         3.37215378714841    4.86590644205672   12.62745627237159
H         4.27024473553950    6.27882530229038   12.04803973026982
H         2.51280066611330    6.21557446981253   11.85122860042975
C        -0.98915810877873    3.10036972617231   16.53518903247676
C        -2.33973517259976    2.98934456255135   16.20601452631959
C        -3.21773119811343    2.38560286165717   17.11128195653678
H        -4.25813051360704    2.31047106832144   16.83328590358640
C        -2.76512348160981    1.90852826099401   18.32289705646802
H        -3.46005996285214    1.44482625507504   19.00683657820824
C        -1.42567431622704    2.03240609616764   18.66382586251904
H        -1.06988940118502    1.67288187860255   19.61713620468319
C        -0.55330040230791    2.62360837847855   17.77156371815122
H         0.49719149012372    2.74506765274261   18.01893095837424
C        -0.94387759012771    4.27672730493310   13.91296114990592
C        -2.30412341506384    3.99861625111122   14.00359853900583
C        -3.14146253533436    4.28982001787890   12.92385939252856
H        -4.19260371780435    4.06614077062747   13.02234094114743
C        -2.63257087684594    4.83700557443043   11.76576761821606
H        -3.29448919599527    5.05495050726779   10.94132709163461
C        -1.27297942322499    5.08898853701250   11.65543009980295
H        -0.86449557635578    5.49937963888072   10.74346822861835
C        -0.44600942431928    4.80043230025690   12.72284137243533
H         0.62361444062939    4.98063972342961   12.65620181140608

