59
CSD_code = LIYFEG | q = 0 | S = 0 | Stoichiometry = C30H24N2S2Zn | MND = 4
Zn       17.85218421803380    1.78175764888394   11.05865884246913
S        18.96923192785664    1.81590786772376   13.11627806071271
N        17.41540783612242   -0.26402930112333   11.45751458277145
C        18.85376343138185    0.10577391469666   13.35852421500804
S        16.33542459733627    3.31721608929897   10.14968723264466
N        18.81704056669948    1.78317457944207    9.16116499785715
C        19.55948771458152   -0.42069556230367   14.44838302410505
H        20.11613305059262    0.27078347890254   15.06192692112607
C        19.55663695699614   -1.76589788303042   14.72489091611451
H        20.10764668432597   -2.14609132314337   15.57197110015373
C        18.85534236405852   -2.63956420590804   13.89728440094393
H        18.87494897431901   -3.70224303638859   14.08577103710965
C        18.14356199387984   -2.14628663836754   12.83049118310223
H        17.63198702948683   -2.83830486502307   12.17819730155998
C        18.10050842028200   -0.77305586483198   12.54116411593819
C        16.46910821381913   -0.90606798012735   10.85098678099302
H        16.11034614596555   -1.86482001638703   11.22649907919339
C        14.87002611697073   -1.05674088595776    9.02367228275053
H        14.52047639022345   -1.99934413577892    9.43031200112047
C        15.86058635474143   -0.40635599796038    9.67450344086724
H        16.23660123780102    0.53553876073812    9.30369192543390
C        14.21510557505917   -0.62635060167292    7.81292990335479
C        13.21902852971410   -1.43874229081732    7.25553359035719
H        12.95954837316952   -2.36694169202480    7.74512119693746
C        12.56818335318651   -1.07054303477824    6.09585081130986
H        11.80229345943287   -1.70988178393714    5.68180255577344
C        12.89549185853953    0.11863848561302    5.46275040973127
H        12.38601311853707    0.40773508784698    4.55569426014430
C        13.87797310322928    0.93535470173904    6.00162809636455
H        14.13787396968234    1.86444289450584    5.51651043630507
C        14.53123201625355    0.57169291206696    7.16092650355227
H        15.28641183166352    1.22743171552712    7.56249019296951
C        16.93101307113263    3.14997812613164    8.53300136327772
C        16.19609935881120    3.78866863157349    7.52554511545863
H        15.32085303402095    4.34474246516608    7.82404347506601
C        16.56286195769643    3.70459442264909    6.20472455787609
H        15.97997585232831    4.20731017478480    5.44759545450468
C        17.67834914801537    2.95250965048810    5.84409246682774
H        17.95407949179176    2.85065114934992    4.80546233742505
C        18.42502171774396    2.32988219920144    6.81513610152845
H        19.26780214409478    1.72321568738547    6.51886268342420
C        18.09496198801476    2.42491264360974    8.17641446465580
C        20.03557782038516    1.37878782915339    8.99675976306689
H        20.58246369483019    1.60228369021845    8.08026180220673
C        20.71422152307288    0.62583758118380    9.98501196756371
H        20.15642821221725    0.39792710426399   10.88109981418782
C        21.98633172094724    0.19296058551405    9.83645836332048
H        22.51109320789957    0.44496997930328    8.92145942172115
C        22.73891181180554   -0.59361575584416   10.78243020699770
C        24.04519697428827   -0.97967113482601   10.45465449594403
H        24.46233317263643   -0.67692701006482    9.50443858048184
C        24.80191260427170   -1.73717516126656   11.32502278263904
H        25.80744310839047   -2.02452394623059   11.05463927733758
C        24.27331919505827   -2.12872628497365   12.54541620621346
H        24.86506154411342   -2.72114470765389   13.22716646850268
C        22.98270329435860   -1.75369331949620   12.88663632984637
H        22.56395251995115   -2.05230620032974   13.83617407035884
C        22.22234697628980   -0.99616140487122   12.01999071345230
H        21.22437944189273   -0.71247803183924   12.31199031734226

