71
CSD_code = LIYGEG | q = 0 | S = 0 | Stoichiometry = C36H26As2Cl2O4Pt | MND = 4
Pt       -0.63775933483178    1.17126590434091   11.20183451722806
As        1.06989579615164    2.68464270003833   10.56737815568086
Cl       -2.35490211982489   -0.36366998572450   11.44221817724627
O         2.17361307023073    5.74254318938804   11.03217885695556
O        -0.15248693081881    1.32381939972848    8.32640423793158
H        -0.58425106174358    0.61017390706403    7.84043568122218
C         2.52060278759730    3.37534075432312   11.62959525795799
C         2.81932451971340    4.73628790900807   11.68875923009573
C         3.88702322990346    5.16584423912866   12.48195401407399
H         4.10670255676001    6.22238151945076   12.50873101834587
C         4.63410468742696    4.26194826914571   13.20775185594284
H         5.45539410814226    4.61467739857336   13.81346797034084
C         4.33071893042367    2.90831632069258   13.16396386281901
H         4.91295182206092    2.20080001096809   13.73433840553509
C         3.27766304359750    2.47729913516416   12.38115770072613
H         3.01396685106384    1.42480355431963   12.32344131559040
C         0.40140684261894    4.40207682108468    9.97978875421079
C         1.02721841348208    5.60183949763780   10.30632881397372
C         0.46754078466455    6.80839071423636    9.87908659192876
H         0.97080198918538    7.72491633703621   10.14607412058392
C        -0.69952134728475    6.82163915061882    9.14559986089307
H        -1.11953832383794    7.76372517307585    8.82722921733838
C        -1.33760053397889    5.63117775487215    8.82857335377505
H        -2.25736328173181    5.63657421909817    8.26238222033555
C        -0.78607176052110    4.43812574560212    9.25235509523080
H        -1.27114161946141    3.49164647882247    9.01750032713193
C         1.98376284255214    2.04147732453206    8.98285665676088
C         1.18687790133427    1.33836744127330    8.07721472312491
C         1.75692485773517    0.71853146281753    6.97657237393994
H         1.13857839361920    0.15212156567821    6.29331093108136
C         3.12217914340146    0.82147407104340    6.76786239518022
H         3.56633078687165    0.33655657831466    5.91162648232051
C         3.91673371128736    1.53223101563591    7.65009591700280
H         4.98074863423205    1.60458708291993    7.48256709593372
C         3.34889232142945    2.13112930147146    8.76346486360059
H         3.96898551948968    2.66121511255979    9.47919032932011
As       -2.34532069773007    2.68462425774165   11.83666134914853
Cl        1.07928615090709   -0.36371457542632   10.96152741780790
O        -3.44879726482184    5.74257477747950   11.37158666974604
O        -1.12270564579000    1.32359411110324   14.07733894286739
H        -0.69092785366956    0.60990194073427   14.56322863800946
C        -3.79606744300897    3.37532103717869   10.77452463652183
C        -4.09469213888792    4.73628458010369   10.71523572121766
C        -5.16251546597287    5.16581748792765    9.92218782264478
H        -5.38204044147352    6.22238220004357    9.89521497584709
C        -5.90979440317607    4.26188679785451    9.19663904582824
H        -6.73104012568669    4.61462757311322    8.59087026969748
C        -5.60648642110025    2.90823973643424    9.24052840438707
H        -6.18880330977761    2.20071488520171    8.67024882230975
C        -4.55332244718020    2.47723772027073   10.02320570001892
H        -4.28975506550205    1.42471693986280   10.08104824499744
C        -1.67676159943388    4.40206869862339   12.42420214811472
C        -2.30244337009952    5.60186124623590   12.09749664589767
C        -1.74267516790238    6.80841321502076   12.52462989033748
H        -2.24580439697541    7.72496200964927   12.25747528539049
C        -0.57564978633699    6.82163379227077   13.25816298365829
H        -0.15552195599926    7.76372467406905   13.57637982642608
C         0.06231103299378    5.63115334073780   13.57535026100136
H         0.98203847087615    5.63654406082660   14.14159791092860
C        -0.48931069512096    4.43809697200855   13.15170056061494
H        -0.00432359683444    3.49161453830809   13.38669957081069
C        -3.25900311804777    2.04143315401535   13.42124356892623
C        -2.46203343229500    1.33825073408403   14.32674818191135
C        -3.03198814794425    0.71833967747928   15.42739201265759
H        -2.41360375653532    0.15174799617087   16.11046703844907
C        -4.39722713479584    0.82124602484382   15.63620685871844
H        -4.84129681131552    0.33632852316256   16.49247865821120
C        -5.19185853285473    1.53208425329132   14.75410816256764
H        -6.25583744757505    1.60454134026888   14.92178183077041
C        -4.62410797943712    2.13111141662561   13.64076606153229
H        -5.24422723251051    2.66135778874066   12.92517550064954

