77
CSD_code = LIYGUW | q = 0 | S = 0 | Stoichiometry = C36H33N3O4Pt | MND = 4
Pt       -1.20028809065528    8.33216146164612    5.46138563962346
N        -2.47780037195926    9.79531540563683    5.47532082143532
N        -2.81733837020002    7.31424246253999    5.81002148326237
N         5.16655920929935    8.76528137645372    4.53535063530529
O         0.07269808322064    6.81857067348368    5.44612473264266
O         0.42644241497757    9.40156008172610    5.11714256829996
O         5.70361998117224    8.27901498871268    6.68250926859194
O         4.59019122066256    9.23378699078730    2.39411666867118
C        -2.18504905297551   11.08541389355496    5.27520723302698
H        -1.14060880219806   11.30455675867900    5.09863883407094
C        -3.13752785131174   12.07317877029665    5.28942183547436
H        -2.83073368336213   13.09164705546757    5.11934828316047
C        -4.48892807187450   11.75740088660658    5.52123250074972
C        -4.78344368324943   10.42371471380766    5.72878540286985
H        -5.79431056462230   10.10444584791366    5.91260798770401
C        -3.77793935613570    9.45301058018219    5.70367648995415
C        -3.97117890747069    8.03578637129265    5.90075949745823
C        -5.19280556008479    7.40893217058065    6.16257026079112
H        -6.07516354988247    8.02117102412385    6.22724245823165
C        -5.26665143482468    6.04035957294743    6.33575757964378
C        -4.05761503378329    5.32824295567049    6.23093058816914
H        -4.03608502006836    4.25805107372054    6.35150582744462
C        -2.88213416171985    5.98776941406873    5.97372482829139
H        -1.94075995687977    5.46139695748636    5.89084011332513
C         1.50032054060554    8.63193941340176    5.04836911263453
C         1.30989060362888    7.23396070955437    5.22521288555676
C         2.40351495352459    6.37190508148638    5.16318887937365
H         2.25039219701252    5.31194472928842    5.29639361992396
C         3.66491865624664    6.88358493134491    4.93251430539270
H         4.51957386623353    6.22604184451912    4.88456205471738
C         3.84255189706047    8.25201827015535    4.76745709198355
C         2.77946473004814    9.13435485682800    4.82281418819878
H         2.92711792222688   10.19489797365464    4.68877847838933
C         6.04509255618570    8.71982690322983    5.60551216588553
C         7.40288225668782    9.24371275979891    5.35506055272359
C         7.73807530956377    9.77051111172294    4.09147995561186
C         6.78952764769745    9.79397750664066    3.04921282076529
C         5.43126221361034    9.25670521847068    3.26734808790632
C         8.34056691110122    9.22370745404810    6.36497838396055
H         8.05957700820089    8.81566341042154    7.32427481989884
C         9.62783789734098    9.72417709014339    6.14537077905428
H        10.34922409066860    9.69911395836815    6.94850308169511
C         9.97354058105188   10.24271541549243    4.92479821962437
H        10.96786182455401   10.63061159034710    4.75485883282298
C         9.04177801713824   10.28070240190395    3.86659412571480
C         9.35190007177297   10.80380174479413    2.59394289917751
H        10.34472840257838   11.19416599473233    2.42121908892222
C         8.41471555898198   10.81762753984927    1.59412701568598
H         8.66276285969417   11.21995703062147    0.62323165001330
C         7.13034699172076   10.31153699395773    1.81814911265610
H         6.38721936520753   10.31661312345662    1.03497272949242
C        -5.53223574427260   12.85733774371142    5.53054813176138
C        -5.53069124330008   13.55091986282017    4.16080989234395
H        -4.56476434950208   13.99700815661329    3.94259308687747
H        -6.28110481775856   14.33777673129880    4.14233436695702
H        -5.76191782509183   12.83506888735312    3.37490523045435
C        -5.17567939190474   13.86964967428288    6.62831745742090
H        -5.14835508279574   13.37981347021537    7.59931696683036
H        -5.92244450399203   14.65949705915083    6.66141300713484
H        -4.20653140128853   14.32575421958490    6.44862669902566
C        -6.94184073002799   12.32592562016492    5.80207669296588
H        -7.24915295038909   11.61941039004532    5.03447385213198
H        -7.64689169627498   13.15395770424477    5.79548075948359
H        -6.99880849432526   11.84591124704441    6.77637458399688
C        -6.55801660024657    5.30053367026856    6.62465363861637
C        -7.76381332196035    6.23914192954424    6.71475110027500
H        -7.63739695256477    6.96359475475063    7.51607630008437
H        -8.65815215907702    5.65793317529181    6.92749099024139
H        -7.92256254894467    6.76505798510904    5.77607865293820
C        -6.41723034498662    4.56264599626507    7.96361023121534
H        -5.61167367825841    3.83483241299434    7.93376713700503
H        -7.34081217327499    4.03822441640933    8.19723515207547
H        -6.20988676855464    5.26950744614371    8.76414534253585
C        -6.81176881314538    4.29065425599202    5.49648915941014
H        -6.88843928754749    4.80407410940842    4.54044323843958
H        -7.74236245759999    3.75791002522666    5.67748862043029
H        -6.00986097932422    3.56127251043418    5.42885323336963

