71
CSD_code = LIYGIK | q = 0 | S = 0 | Stoichiometry = C36H26As2Cl2O4Pd | MND = 4
Pd       -0.66569536931387    1.22772462760301   11.17981710047063
As        1.05545037553247    2.72226908169399   10.65689271335018
Cl       -2.34499998997943   -0.31791339852127   11.10708509630984
O         2.10835467255507    5.82068886340776   11.07661442625203
O        -0.21584979070917    1.15928504879200    8.48925149183301
H        -0.62628651518347    0.39945592063218    8.05140586927596
C         2.54462704130516    3.45859435558282   11.64311273991599
C         2.80670131045458    4.82864960735860   11.69951700729974
C         3.88878976055039    5.28482901712249   12.45771388622603
H         4.07773243806396    6.34723259524698   12.48340772256590
C         4.68712563407668    4.40018194184427   13.15184586272755
H         5.51793060757628    4.77410066452548   13.73118419379758
C         4.42292601038982    3.03828157966087   13.10999761277614
H         5.04491078576985    2.34550967658322   13.65593334651953
C         3.35517903597713    2.57997357598110   12.36368010361091
H         3.11827477577840    1.52012729589953   12.31374084589575
C         0.40473020829034    4.42332931500453    9.98530399173189
C         0.99063634028473    5.64338426445500   10.31487995888604
C         0.41650228179223    6.83003086484631    9.85265043080707
H         0.88707692736322    7.76202669705563   10.12530685953523
C        -0.72433826235365    6.80499957935051    9.07905987811086
H        -1.15798225852306    7.73220992512367    8.73651095516861
C        -1.31826643645668    5.59507509884942    8.74993880542159
H        -2.21520324617409    5.57052671046764    8.14871501393423
C        -0.75379148468479    4.42120594053892    9.20916056414687
H        -1.21007044220741    3.46039256408648    8.96248547170278
C         1.92130780507101    1.98627442129072    9.07278988098084
C         1.12583350735957    1.19514876906655    8.23702895717179
C         1.69544991564908    0.50331148718195    7.17844146315633
H         1.07831675683822   -0.13010968336933    6.55516728068838
C         3.05300002264704    0.61810860060669    6.93468374750513
H         3.49287197247158    0.07557075680266    6.11145794079791
C         3.84472893866841    1.41624366971913    7.74183165372852
H         4.90342743382912    1.50116578235237    7.54869534986876
C         3.28090456499108    2.08652034252233    8.81497246281065
H         3.90006514501152    2.68612368948447    9.47490370064492
As       -2.38570712721516    2.72285405544546   11.70285550415315
Cl        1.01417128686226   -0.31736900484499   11.25251872121699
O        -3.43890590617330    5.82106705088561   11.28323226209930
O        -1.11432817734942    1.15986995026944   13.87050436808606
H        -0.70383369359866    0.40007150519132   14.30835022221283
C        -3.87489420381883    3.45896295933622   10.71652517491184
C        -4.13716614779425    4.82898111116633   10.66029858196167
C        -5.21941485045937    5.28507558108547    9.90228101092639
H        -5.40854929181838    6.34744882469520    9.87679291327134
C        -6.01767021267083    4.40039237253481    9.20809913118049
H        -6.84862247526443    4.77424800705795    8.62893201977023
C        -5.75326278204803    3.03852792506196    9.24976812426427
H        -6.37513916542798    2.34573040679015    8.70374088621892
C        -4.68540404896048    2.58029548896346    9.99596814472268
H        -4.44829226461962    1.52048770348737   10.04569438889784
C        -1.73505748636505    4.42389718184019   12.37442673805502
C        -2.32110901882962    5.64387361963696   12.04488543577492
C        -1.74704092607151    6.83056648680717   12.50706085959911
H        -2.21771987390566    7.76251352557613   12.23442273988814
C        -0.60615040062211    6.80562836224927   13.28058740955873
H        -0.17256119797550    7.73287106677284   13.62310913745554
C        -0.01205906863346    5.59575889192664   13.60962541841514
H         0.88488022646441    5.57127918115811   14.21084689906987
C        -0.57644186933067    4.42185139310750   13.15041216256800
H        -0.12008868017278    3.46106310973954   13.39706489199427
C        -3.25154641246256    1.98660566325896   13.28685067771079
C        -2.45603984698349    1.19553980370055   14.12263657031254
C        -3.02565241469047    0.50346078382968   15.18106331705217
H        -2.40848980424389   -0.12996747999747   15.80430084585721
C        -4.38325934861220    0.61795940702115   15.42464577252292
H        -4.82315094435095    0.07517778911819   16.24770086205373
C        -5.17502780636993    1.41604580463437   14.61749015710485
H        -6.23376535917314    1.50075449940147   14.81050887626810
C        -4.61119535425950    2.08655428172109   13.54449658000696
H        -5.23037582572363    2.68619344247355   12.88461880914887

