71
CSD_code = LIYHAD | q = 0 | S = 0 | Stoichiometry = C32H31N3O4Pt | MND = 4
Pt       -1.15806517143689   16.79440150471224    5.29424181028298
N         5.20141854347901   16.51691072355460    4.33185023648531
N        -2.79879963652403   17.77842124974762    5.62927939835474
N        -2.39965772727395   15.30059300083358    5.33631207127479
O         6.31432660966919   17.71936191139876    5.96902321004311
O         4.74676565709490   15.08336970917314    2.57012723775599
O         0.07737867321256   18.33927196707769    5.25824156988386
O         0.49501545315623   15.76141007240264    4.95884082475839
C         6.31477972698443   16.93434795112838    5.05547644717034
C         7.46691871271748   16.20136953537131    4.47109085188226
C         8.80675304369229   16.22877557383661    4.79604812263320
H         9.16861453811727   16.86015175658540    5.59257794821232
C         9.66541988248008   15.41706534742471    4.06096985076867
H        10.72076438954000   15.41570246481360    4.29034338055516
C         9.18944430274889   14.61107864840218    3.03839155797576
H         9.88066675073391   13.99283061512537    2.48488659663061
C         7.83674560249761   14.58462541219477    2.71287542125231
H         7.45857680256250   13.96005856090512    1.91860567645943
C         6.98749745954200   15.38878851570371    3.44354611429483
C         5.51908779117802   15.58968757109750    3.34308693154446
C         3.88337000641156   16.99120974007724    4.57268559672360
C         2.83777984432515   16.08397854815722    4.64462469687929
H         3.00536669049103   15.02643325494132    4.51811466035412
C         1.54881616938961   16.55742290455252    4.87320030464573
C         1.32351379935085   17.95180846434098    5.03802153413472
C         2.39642924510897   18.83877416908317    4.96511899325653
H         2.21859025412425   19.89574469840838    5.09071632591815
C         3.66886295058387   18.35859266740572    4.72928751295099
H         4.50225547444376   19.04040596313713    4.67180351336349
C        -2.89555592076066   19.10599848660627    5.76416755669357
H        -1.96717447849811   19.65306344754558    5.66963125201311
C        -4.08685219698807   19.74221819806154    6.00739584024164
H        -4.09121547317092   20.81493664912696    6.10487176524128
C        -5.27796686147189   19.00340103315967    6.12767343692259
C        -5.17058790851566   17.63322325143214    5.98525525725387
H        -6.03785105406680   17.00135010876468    6.06359847825609
C        -3.93404863900865   17.03109907943147    5.73664923728169
C        -6.58675150309306   19.71788865984807    6.40099291697671
C        -6.46605430716559   20.47833206427964    7.72930745020942
H        -5.67774729393586   21.22437773333963    7.68980626134471
H        -6.24353285895720   19.78848449537794    8.54054297168117
H        -7.40212891121518   20.98411522259203    7.95376834991424
C        -6.86004206133726   20.70518677402269    5.25744018476890
H        -6.07659259325987   21.45370273465676    5.18285920544756
H        -7.80441712787472   21.21695349452400    5.42700287042465
H        -6.91960764092211   20.17672202461430    4.30838559141912
C        -7.77120320875960   18.75352150972978    6.50131648093841
H        -7.91113227238957   18.20627888175795    5.57189127605769
H        -8.68005741771801   19.31796103515647    6.69680041957561
H        -7.63410988119040   18.04772255887328    7.31737436356511
C        -3.70583304497164   15.61471221710484    5.56853732604672
C        -4.68578586059226   14.61986061800972    5.62532350518639
H        -5.70267134691603   14.91725143143770    5.81247028914230
C        -4.35893609297909   13.28936550047497    5.44579962734040
C        -3.00273212047166   13.00333041024324    5.20516353023436
H        -2.67146823339713   11.98970140410737    5.05318751850667
C        -2.07591168817840   14.01457698720204    5.15970491029174
H        -1.02798566012726   13.81847659411455    4.97657562098653
C        -5.37331988386419   12.16374738245438    5.49422531791371
C        -5.37640298382891   11.44378098092107    4.13819267745784
H        -5.63812370313621   12.13805117000434    3.34256901738368
H        -6.10708772703597   10.63847246679172    4.14736189682869
H        -4.40318900785842   11.01756883674327    3.91272580408524
C        -4.97271172414062   11.18242630137876    6.60494977349854
H        -4.93759291537282   11.69259425011610    7.56517230895000
H        -3.99744460786342   10.74374484341418    6.41535418798947
H        -5.70091682390730   10.37733587454687    6.66878619467428
C        -6.79130751306473   12.66458312271675    5.78003793369002
H        -7.13162517196020   13.34429833293644    5.00219279500894
H        -6.84310287757578   13.16577433254318    6.74393379333516
H        -7.47405724088325   11.81841699824361    5.80601640877546

