75
CSD_code = LIYJUZ | q = 1 | S = 0 | Stoichiometry = C31H37N3O2PRu(1+) | MND = 9
Ru        2.04343109805192    8.67533016902247    5.31569083787269
C         4.59283801538836   10.68672605144550    6.52695016709001
H         5.60414852918019   10.83364348092948    6.15092438030932
H         4.61947871195906    9.87265872716651    7.25371529072360
H         4.26871300899551   11.58968906387843    7.03855511939441
C         3.66330649042994   10.33273919178931    5.40939899058047
C         2.41626842055225   10.95936274125039    5.26251045806079
H         2.13862991775445   11.76709314796599    5.93216650298753
C         1.55330590966546   10.61155516099426    4.18997674905320
H         0.62842685301709   11.16293520170366    4.06172900841956
C         1.93396185053731    9.65383605107353    3.23117584779207
C         1.05402728911393    9.32843409485266    2.04830288175671
H         1.47150857772650    8.44787698619962    1.54843711179948
C        -0.36896897436062    8.98692195995269    2.49720119450574
H        -0.90137343230799    9.87509934199632    2.82953187221577
H        -0.33242307653040    8.26508209235849    3.31550957214021
H        -0.92347594947433    8.55226332861516    1.67011526133125
C         1.05848321152599   10.49736550318925    1.05818073271177
H         0.45812035137811   10.24500417143432    0.18862656107519
H         2.07043594850825   10.71617927324026    0.72505779306524
H         0.64395230173831   11.39369721731191    1.51388282034482
C         3.21858053892585    9.05661610145355    3.36249966667967
H         3.56057450593917    8.36909345873831    2.59546709311138
C         4.05650870416327    9.37416700555517    4.43009790150102
H         5.04890484186183    8.94009205388732    4.48752673289579
O         2.98411509332984    7.77897345038349    6.92049105339824
O         1.52100237410894    6.82097279607720    4.57856518190348
C         2.89580559974362    6.54637623868415    7.21156767489416
C         2.26172216634562    5.55291329339852    6.45751625574853
H         2.30164351832074    4.54875941493500    6.84424157420653
C         1.71466058459031    5.71928121079180    5.17751403679346
C         3.58161153494873    6.13766716868667    8.46435841530144
C         4.77405903714709    6.76408354541373    8.81991741528521
H         5.18999176596344    7.51340019733699    8.16297397086955
C         5.43009117698736    6.41094164463347    9.98350466239073
H         6.36065090922664    6.89169967244036   10.24369710094544
C         4.89240276123483    5.44139524290039   10.81431704793775
H         5.40264346896195    5.16566155771486   11.72412516024754
C         3.69631851231081    4.82821054676636   10.47729335394653
H         3.27021898927248    4.08058108071395   11.12860849689069
C         3.04244930551545    5.16843710078568    9.30751262940420
H         2.10229664228462    4.69724523007729    9.06271919327213
C         1.29100977364854    4.51106934371817    4.42746512940132
C         0.22138301890177    4.62027772067132    3.53888676137822
H        -0.27079938676008    5.57490757391950    3.42775762566693
C        -0.20815939763910    3.52047015849515    2.82230237247833
H        -1.04324653698316    3.61246857303946    2.14478355539276
C         0.43506614018643    2.30216694310047    2.97159829174727
H         0.10263740576482    1.44278301019951    2.41010248328922
C         1.51253828145637    2.19117414662741    3.83589690578135
H         2.02476856899940    1.24712618558799    3.94124307010460
C         1.94181748731988    3.28632467109965    4.56280216067614
H         2.80030231267535    3.19409185166031    5.20998757391471
P         0.15039674705596    8.53254279396781    6.61856007107636
N        -0.95444121248044    8.50970408023832    9.12992471480746
N        -2.15673780907288    7.28714777464476    7.41846549833435
N        -2.19427626627620    9.70881121356354    7.42803906385187
C         0.33218670216343    8.52853450638059    8.47543424119036
H         0.90911502513196    7.64964470296654    8.78537054666402
H         0.88651993681490    9.42463095903368    8.77852294205802
C        -1.75088716058012    9.68304361692476    8.81295283303998
H        -1.16683085533517   10.58256480689277    9.02182464518506
H        -2.63658876521092    9.67826949214787    9.45341488692623
C        -1.09961515310917    9.91189132266257    6.50982710646846
H        -0.60814416382495   10.86344890920544    6.74383419493208
H        -1.49484467878211    9.96072651020570    5.48903539103378
C        -1.71373189251402    7.31387636328838    8.80313179144883
H        -1.09994992728125    6.43200499114680    9.00215085829420
H        -2.59842229514659    7.28506111031505    9.44451927511786
C        -1.05969389146334    7.11462736233177    6.49681577391263
H        -1.45038053075933    7.06065258791493    5.47436868011538
H        -0.54237677855507    6.17376723968578    6.71948657979709
C        -2.92801254097194    8.48693820204519    7.13996216315515
H        -3.23002958361271    8.48625579464092    6.08982606835070
H        -3.82291965779036    8.47113451393091    7.76725297356362

