70
CSD_code = LIYJUY | q = 0 | S = 0 | Stoichiometry = C23H31F6NO6RuS2 | MND = 9
Ru        1.84165744871988    3.61593957178741    8.17174374318038
S         1.20775058761517    1.19238181349021    6.19439573848468
S        -0.89233546345239    2.40428508036780    8.80579891934504
O         0.04440777484191    3.46786096826414    9.25517777459659
O        -0.69257606077474    1.10603936402226    9.35392064859994
O        -1.33882974644727    2.59659452002896    7.45603403177777
O         1.10930023760287    1.73087195889436    7.55918842404695
O         2.51991134488449    0.67884351878705    5.90607457518567
O         0.67395474091816    2.06134158570931    5.17974223394842
N         0.58449913148220    4.41555136153292    6.62036154337552
C         3.27236578770235    5.29202202246067    8.85825968654968
C         3.93248041159785    4.61122237035136    7.76931241765041
C         4.12300797132675    3.20930859843248    7.81222704868785
C         3.62031225800020    2.46506666381910    8.93762319061147
C         3.02453886985096    3.12198015046567   10.03335863905021
C         2.78865631967957    4.53664082203075    9.96501799762600
C         3.30179109531403    6.79962761267930    8.88125254958294
C         4.51791166737324    5.45163442811158    6.66582611549100
C         4.94938312234143    2.47634582602986    6.79244426307452
C         3.75684065650176    0.97162919704845    8.94610416026580
C         2.60588034260348    2.34170442569525   11.24650946166850
C         2.04450843617241    5.19353863947303   11.09490735426263
C         0.87926290461201    5.72570762854326    6.18428646401681
C         0.41854494726628    6.82026465109142    6.92856707032744
C         0.73206961796684    8.10264724525047    6.50306187978799
C         1.48843661526851    8.32421395653694    5.35932110815698
C         1.93719224959665    7.22606088515469    4.63792049047839
C         1.64433020655585    5.92739365537112    5.02848976124431
C        -0.39790524456835    6.58780239035206    8.16123666751255
C         1.79161782355908    9.71915103333679    4.90573474582065
C         2.12040451008980    4.75616014605052    4.22632450362254
C        -2.35115886896356    3.08117763821541    9.81311478683319
C         0.13071806395660   -0.31954455896316    6.29876166922591
F        -3.46366510482541    2.35304550527910    9.73896611556568
F        -2.64773262337653    4.31651573386034    9.37862234011893
F        -2.02515376154514    3.19412918741226   11.10785543151794
F         0.58937970779309   -1.09025327090159    7.28054619263757
F         0.23048554940136   -1.01705084918910    5.16055406379199
F        -1.14864324606150   -0.06561093685476    6.50471764578015
H         0.61963842388182    3.72172138934911    5.85475212677772
H        -0.36200915859924    4.32938866923709    7.01429872624796
H         2.58055384372781    7.22344808805598    8.18399353296651
H         3.08982254990167    7.18520613528834    9.87234162556349
H         4.29298007515006    7.14733844261355    8.59688621863035
H         4.64513895413700    4.88537663823686    5.75064592034969
H         3.87442532017400    6.29738423280934    6.44190545091114
H         5.49378703290618    5.82911672063510    6.97596558415944
H         5.66970988234626    1.83963870065219    7.30355299671531
H         4.31652366029207    1.83341558634676    6.17811554814052
H         5.49826572570683    3.15108246441233    6.14493251497566
H         3.73941450893547    0.58038817792659    7.93252263953097
H         4.69049766145418    0.67435528139765    9.42736482409652
H         2.92372984430804    0.51921305551245    9.47719700403893
H         2.58589899583338    2.96860273494451   12.13297943293079
H         3.28923804836365    1.51590719563272   11.42844561704248
H         1.60457239429821    1.93421559969815   11.09005750753652
H         2.68966870478226    5.30531818848434   11.96728574909144
H         1.66647474306727    6.17026624070148   10.81132363699908
H         1.18752528407921    4.57869190707323   11.36329143932128
H         0.37422455409849    8.94853265622008    7.07232672117060
H         2.52331133819274    7.38576930762956    3.74454638913490
H        -0.50294768553189    7.50671925546174    8.73189425067235
H         0.05768480679523    5.82088077423769    8.79236893290753
H        -1.39681719823064    6.23903996366122    7.89818966395370
H         1.93247552346980   10.38215228539401    5.75628264899833
H         0.96040207967376   10.10501064303649    4.31562893070390
H         2.68408702867207    9.74229208886029    4.28575384842635
H         2.60886255776151    4.01329043195047    4.85716052259180
H         1.28079744893784    4.25482824334227    3.74571406058798
H         2.81276277087223    5.07966836112231    3.45341448131120

