79
CSD_code = LIYJEJ | q = 1 | S = 0 | Stoichiometry = C27H45N3O2PRu(1+) | MND = 9
Ru       15.28667962378470    5.55183474034884    4.37067558734824
P        14.97711522641191    3.40330387758688    3.62108325699777
O        13.96196622346233    6.06319829332173    2.86479012942455
O        13.67920325965817    5.27150337453172    5.63947797915176
N        14.81059392838851    1.75853041678425    1.43085939470660
N        13.42866567843413    1.15915223369724    3.33056503086292
N        15.82346735442574    0.80680406067146    3.41659828702791
C        16.93465398851851    7.54043002702849    2.04889330039336
H        17.31125178038471    8.56263375408030    2.06884095988595
H        15.94651879917620    7.55741470883151    1.58826969938882
H        17.59355719332925    6.93493018422597    1.43164817234179
C        16.84177870262963    6.99715102756326    3.43980613281120
C        17.51373023424694    5.82654729390771    3.82365167384626
H        18.16151702216538    5.32221739001245    3.11351305427813
C        16.10991483345014    7.70997285625228    4.43423556228170
H        15.64992752187528    8.65617472132544    4.16972989298812
C        17.43504796061701    5.34843796946279    5.15863406599562
H        18.02326018414177    4.48307944776791    5.44311771069526
C        16.04898850812446    7.24857216260419    5.74771472303173
H        15.53738890315026    7.83736280717826    6.50231904625013
C        16.69825682355743    6.04204336870385    6.13491621607927
C        16.66234975168674    5.57718284532504    7.57066511474229
H        15.92452776588143    6.18487460866476    8.10574427769903
C        18.03031618344053    5.79464960075784    8.22483477448006
H        18.79579706368157    5.19960303629986    7.73242109379944
H        17.98803966968631    5.50186398024563    9.27017469212048
H        18.32019613775602    6.84167131339982    8.17273374081954
C        16.22978142707204    4.11139635479198    7.66324842216136
H        15.33019888449145    3.95267665048676    7.06607175614050
H        16.01487779488532    3.85356262461620    8.69665028778699
H        17.01345566600386    3.44761041128836    7.30606637111515
C        13.40958518903118    2.45569494908292    3.96690303683990
H        13.30340159171805    2.32749834812531    5.05001237508318
H        12.55249341140436    3.03343079698252    3.59890439613800
C        14.51302564508732    0.32551230047520    3.82321355111972
H        14.38002062625447   -0.68165783313623    3.42010950783513
H        14.46699497508276    0.28117686025963    4.91394136952526
C        13.52192821480877    1.25910581706033    1.88317460380646
H        13.37674864907508    0.26091687834908    1.46216125454556
H        12.73029275167958    1.91746481568308    1.51696581097617
C        15.86385708217545    0.91171165394945    1.96690021259873
H        15.74116736138269   -0.09102767620073    1.54977163558407
H        16.83539734648442    1.30669461435703    1.65999216332073
C        15.00611384457704    3.14700290716555    1.77659529350853
H        14.21513258060413    3.75350111060162    1.32152225506707
H        15.96996071811530    3.48817048427134    1.38092790973812
C        16.17595807245564    2.04604334160924    4.06677162360003
H        17.18662165076952    2.33688698309665    3.75815412376645
H        16.16855896292020    1.89839081352389    5.15230327137683
C        12.46040452998163    5.45035037689919    5.35249060181168
C        11.94870090344791    5.74190869536803    4.08716639951964
H        10.88211860401977    5.81031197554607    3.99077334660121
C        12.70341882004051    6.06903184158953    2.95578715058216
C        11.52419332724567    5.32254256543452    6.56894652944296
C        11.61945525294132    3.87297404331751    7.06324529292307
H        12.65282921717377    3.61295766430484    7.27967644678605
H        11.22994378652474    3.18675584661466    6.31431607709505
H        11.03569127587628    3.75648412357008    7.97241504691126
C        12.05983103991101    6.27143760570118    7.64954683460644
H        11.46946624218553    6.17316825798998    8.55631988543026
H        12.00194734223765    7.30369201500781    7.31042378100559
H        13.09543617259095    6.03467950565972    7.88054304962571
C        10.06606790350254    5.66457764973708    6.27734486986207
H         9.62460492888078    4.96638796892311    5.57078488674681
H         9.96492793037754    6.67773557791990    5.89672493846532
H         9.50030960497046    5.59796285310382    7.20367743627442
C        11.94712044697356    6.48774069919489    1.68171826241342
C        10.97049369663773    7.62695659782551    1.99045495646554
H        10.54462726188812    7.99652296101831    1.06101739543565
H        11.48369856201382    8.45025299658087    2.48168789545452
H        10.15367635443915    7.30019224252046    2.62647885899159
C        11.18721283734744    5.26243159793702    1.15927255328782
H        10.48307115583206    4.88699544606556    1.89663426325831
H        11.87840428620820    4.46259919051321    0.90018125680316
H        10.63307453737112    5.53511003655734    0.26473329873581
C        12.94144041317602    6.96045991523317    0.61863883684878
H        13.68209654035551    6.19255048264277    0.40729932868643
H        13.45730358085480    7.85723744573841    0.95406426857484
H        12.41305067683749    7.19368851444375   -0.30153854973538

