61
CSD_code = LIYJAF | q = 1 | S = 0 | Stoichiometry = C21H33N3O2PRu(1+) | MND = 9
Ru       -0.50669902879232    3.11902545761152   12.81818949437170
C        -1.95046903194928    0.43238618313381   14.47508723247554
H        -1.34459854152271    0.19586121084367   15.34613617155197
H        -2.48210966013494   -0.46582212770671   14.16134989961155
H        -2.69407297575360    1.17729910391249   14.75937889233725
C        -1.10974000188642    0.94891155829612   13.35119859447435
C        -1.71929480095895    1.28628949452726   12.10684970161028
H        -2.78740790451317    1.13875690418212   11.98886182424420
C        -0.95177910921091    1.72305493285926   11.02916328909420
H        -1.42712441567320    1.91923953838058   10.07347654378535
C         0.46058176595423    1.86676003840099   11.14040710363565
C         1.28382908706423    2.29941792746029    9.95136951311658
H         0.59797353100598    2.65711026315468    9.17613877223636
C         2.22233156158682    3.45079227261307   10.32137973614252
H         3.02826668143630    3.10860792612099   10.96626617043378
H         1.66163407490769    4.23519725655172   10.83316338756179
H         2.66565939927376    3.86865488481425    9.42187461267634
C         2.06370481983732    1.10437886211572    9.39391205225862
H         2.76941203635856    0.72340282216088   10.12834530004987
H         2.61852259797543    1.40850948366082    8.51083324586048
H         1.38782134818928    0.29942561867780    9.11439735411552
C         1.06366682149813    1.51364368900152   12.36139139122800
H         2.14470070225709    1.51284478082869   12.44632068352707
C         0.28657814042529    1.04921205096397   13.45590688324321
H         0.78424150017075    0.69901053150624   14.35476646732429
O        -2.09110563809983    3.77891974643814   13.98918288968708
O        -0.76160536485831    4.76004548194639   11.57288431367332
C         2.62148679259886    4.20649468298851   14.29840307813285
H         2.81285685602421    3.18196502954487   14.63746653294690
H         3.08668003486281    4.34649814169528   13.31664060936985
C         2.67444506723756    4.96919059560639   16.58022729886190
H         3.26978519388844    5.58466950150771   17.25937103494434
H         2.76357476917246    3.92235020841724   16.88055882778526
C         3.04461497364206    6.51490921018006   14.82173192577916
H         3.64247794611376    7.14332860875329   15.48664340663053
H         3.41030400063595    6.63060796905956   13.79869904680877
C         1.16245678140505    6.76150825664227   16.24183476921155
H         0.11275366609308    7.06193092226948   16.28507417918714
H         1.74208491116138    7.39390296534885   16.91911458626810
C         0.83225593608720    6.32447283948197   13.89988008502486
H         1.22410393362364    6.53965256287963   12.89882115454011
H        -0.18785052806717    6.72303430022590   13.96714573260916
C         0.39669488246506    4.49892765973970   15.97518309335206
H        -0.64002428861881    4.82509656735348   16.11714846010244
H         0.49421609639476    3.48273972382383   16.37460879722889
P         0.78214342197168    4.47732776315404   14.15278747255170
N         1.66391522512896    6.96434941916169   14.89179253797455
N         1.28572935119602    5.38399342825734   16.69014086190618
N         3.20822105202415    5.13118497506986   15.23725122440177
C        -2.76833262732062    4.82596005630121   13.77723174177104
C        -2.56992077277154    5.75966021390821   12.75770705657779
H        -3.24822101448371    6.59704065366388   12.72382753223442
C        -1.64522006231603    5.65238894001284   11.71476452446417
C        -1.69500597577926    6.70206543683731   10.63187520795060
H        -0.92312513146233    6.50646437731045    9.89273479484073
H        -1.54288978820239    7.68770769387579   11.06512835159636
H        -2.66901796203817    6.69243053947803   10.14871061864424
C        -3.91995003613155    5.06456682008071   14.72389093058158
H        -3.89956243207505    4.33150343597072   15.52587545868223
H        -4.86149976682230    4.97821224951467   14.18573741081779
H        -3.86209810020195    6.06672835944327   15.14056013591051

