55
CSD_code = LIYLAG | q = 0 | S = 0 | Stoichiometry = C20H24Cl2HgN2O4S2 | MND = 7
Hg       -5.77919557750355   -1.70148562483430   -4.14589842320693
Cl       -4.02687232129676   -1.35508904473875   -2.69402680175893
Cl       -7.77117794698269   -2.40798119793634   -4.97530133615446
S        -7.31751060087963    0.20711107068967   -2.08926392181775
S        -6.73731872557230   -4.37287815009762    0.42733287668052
O        -5.82778503513725    1.14660424524625   -4.73787387277942
O        -5.11035186649257   -0.80007403202781   -6.71043576236112
O        -4.31799600917206   -3.38852637484106   -5.80514325301689
O        -5.43269053223288   -4.50701750471394   -3.31868840798235
N        -3.09386032395601    0.97851718904238    4.15237271075589
N        -4.28047841156346    3.50707158772593    0.89642802080587
C        -5.10429306916285    0.14642023681912    1.38256366402643
C        -5.81560732714303    0.42373364724418    0.17661159336379
H        -5.76995932417862    1.46400217279017   -0.11732298053275
C        -6.51586329346218   -0.41672429107897   -0.63027897271357
C        -6.76609642614926   -1.81004391344960   -0.48896702740338
H        -7.36220901025997   -2.22089227731322   -1.29524874372250
C        -6.35716189921891   -2.64489579943171    0.49916230488364
C        -5.64279269759595   -2.30338366333312    1.69375149918291
H        -5.50489555192185   -3.13916953544535    2.36871925241464
C        -5.10758101377899   -1.12295643988685    2.06168870917701
H        -4.58226484169732   -1.11011882759026    3.01057313203634
C        -4.39267321044075    1.18880349008657    1.96355185161535
C        -3.68054120105221    1.05800753279645    3.16731305499896
C        -4.32510441563487    2.46519377245422    1.38064631751643
C        -6.41817858146270    1.74174785319077   -2.50829157177480
H        -6.80749639140842    2.55817604428528   -1.90082785073403
H        -5.35884996361038    1.57394239349776   -2.31466744955830
C        -6.62617378646280    2.03310279129901   -3.98374416257946
H        -7.68749898307338    1.92077565532846   -4.25257571475955
H        -6.32056738692300    3.07006258495611   -4.19514713602490
C        -5.92301133157854    1.36595152256315   -6.12828390687782
H        -5.78977175218834    2.43581529270817   -6.34547160539641
H        -6.90455773616257    1.03952166361602   -6.49927316117475
C        -4.82366128335963    0.57618214668382   -6.82305759443741
H        -4.78379820954027    0.86202594826584   -7.88494482212166
H        -3.85669367506211    0.80384351283491   -6.35159495503371
C        -4.16991636328002   -1.61312915097729   -7.37688941383706
H        -3.16174396494054   -1.43756589972542   -6.97492070295086
H        -4.17548585269035   -1.38256129470497   -8.45267338122659
C        -4.55005452371383   -3.07008562063369   -7.16091397713828
H        -5.60959770427709   -3.21536492675961   -7.41205869835822
H        -3.93103671822693   -3.71192609819049   -7.80491366504120
C        -4.54572459574957   -4.75142516882843   -5.51260571493835
H        -3.85462495302180   -5.37256400380199   -6.10144566103079
H        -5.58085750175814   -5.02792763889528   -5.75496907952247
C        -4.30484134209148   -4.97480202314412   -4.02732868170084
H        -4.16483645268672   -6.04823274054780   -3.83239545375368
H        -3.40233704370128   -4.42911879122556   -3.72070868239042
C        -5.32478963889116   -4.66831400842652   -1.91584657903219
H        -4.78823139752069   -3.81118361244407   -1.48318565171967
H        -4.76160104875468   -5.58127172888124   -1.68133151632462
C        -6.73567654441780   -4.76745364040143   -1.34498389922218
H        -7.11910062018578   -5.78520656454099   -1.40852567290818
H        -7.41090402077336   -4.11184276527228   -1.89338912243204

