76
CSD_code = LIYMAJ | q = 0 | S = 0 | Stoichiometry = C40H30ClNO2PtS | MND = 4
Pt        1.11763375281911   14.36435148882339    5.90462378350011
Cl       -0.64102471291850   12.93725365301838    6.64708525300357
S        -0.21529880624062   14.78068163777749    4.10735449798371
N         2.17688350972144   14.19055019472638    7.60475862809104
O         0.14595906145884   15.89529647292346    3.23636201745463
O         4.35317916029933   17.85293879290787    3.13018705290197
C         1.69281473319492   13.72963980797896    8.75649530577265
H         0.69151167409631   13.31835065718602    8.73514439768536
C         2.42065866904851   13.75492656669078    9.92874725505182
H         1.99676834511172   13.35603000223969   10.83559195073970
C         3.68703321378560   14.32912153755990    9.91421850686606
H         4.26663948227592   14.40501530250903   10.82152441721708
C         4.18939503650968   14.80674736248827    8.72456309460850
H         5.15804940582219   15.27687559483929    8.68379166768663
C         3.43387139418332   14.69267115872000    7.55244909186807
C         3.80911862135158   15.21809655771564    6.25942993164416
C         2.72438202931700   15.47495351351646    5.41005957743182
C         2.91598898073684   16.29428949958092    4.30240384044900
H         2.07726828608595   16.49288620243291    3.65562099941840
C         4.13659396520928   16.90412727044654    4.07534500079578
C         5.27929069301358   16.50425362892202    4.82344109531678
C         6.56365829017727   17.04726840993970    4.56454057400233
H         6.65087394900273   17.80113143281977    3.79843915430544
C         7.63662945650230   16.66151272661808    5.30173717460479
H         8.59734932651841   17.13853516244348    5.17372308496541
C         7.54052628117996   15.57305851066754    6.20696328830142
C         8.66332539618470   15.13754597587579    6.95346300589096
H         9.59651326578544   15.66962286744031    6.83795637067527
C         8.54680064199926   14.11899460871004    7.84574005735420
H         9.36776591140402   13.85525032950465    8.49683964651055
C         7.36339509998660   13.34226778279158    7.90353543948088
C         7.22658175538161   12.28227497347777    8.83188128732985
H         8.04384814710109   12.08380514346199    9.51034171960789
C         6.06689022578897   11.57673618130825    8.91044751273101
H         5.91751791138267   10.83960189927019    9.68616505839147
C         5.06009901487335   11.74054315873226    7.92915774453706
C         3.85775756783227   10.98346578072908    7.97684577862125
H         3.71058671477705   10.31667937969320    8.81441963020937
C         2.90179749600405   11.12664600188424    7.02631619447511
H         1.95312176861434   10.61745539741643    7.10649513838820
C         3.15958007608190   11.89926841291021    5.86007675798933
C         2.24839155871811   11.93138663968384    4.78142359293150
H         1.32018638073746   11.38337178332997    4.86924368843042
C         2.60272456664650   12.51843695098498    3.58701669562542
H         1.92363542488780   12.50057043398624    2.74745331005471
C         3.88281624497264   13.05899423062085    3.43019407120013
H         4.18347715538569   13.44609175296121    2.46824367322597
C         4.75621424647748   13.09512897954621    4.48567738403818
H         5.74734787449725   13.49857307577388    4.34665818116504
C         4.39184577881455   12.58803532856360    5.74458170790949
C         5.24854292151698   12.67462481344067    6.89511372320493
C         6.29485299539849   13.64157759900096    7.03068018538176
C         6.30826154406482   14.91014764571619    6.36225947458651
C         5.12787535521874   15.54296033994551    5.84541985158552
C         3.25955089031720   18.28868413821898    2.35622739248041
H         3.65028875755014   19.07502855562177    1.71172207350607
H         2.46051771748401   18.69151038855264    2.98486320298263
H         2.85498671833773   17.47937516836194    1.74178561532072
C        -0.59227155640980   13.41939092922710    2.98140826359456
C        -0.35308821712704   13.62964101218997    1.63434827516658
H         0.03169080821516   14.58840675035042    1.32155378132533
C        -0.60836944068979   12.62014427614445    0.72631729131494
H        -0.42146228151656   12.78327080785101   -0.32543292279013
C        -1.09995649692344   11.38991491205010    1.15399981093205
C        -1.33646287247653   11.20003300753706    2.51013649851016
H        -1.72094788207010   10.25228798044127    2.85734652192617
C        -1.08526793341941   12.20657350438872    3.42730509169539
H        -1.26519383278706   12.04425164662332    4.47898002016490
C        -1.36902015933926   10.30253270573282    0.15972135515614
H        -1.65392323706559    9.37939133518882    0.65754586721777
H        -0.48437454714305   10.11508379154181   -0.44711322800214
H        -2.17530143436548   10.59731513156929   -0.51154663375063
C        -1.91839394728174   15.14230489050498    4.64886233384809
H        -1.87944970701699   16.04409848086388    5.25209380497658
H        -2.28628930104152   14.30834079946284    5.23484480016841
H        -2.51796888401118   15.30609917531663    3.76048326103354

