71
CSD_code = LIYPIT | q = 0 | S = 0 | Stoichiometry = C22H42N4O2Ru | MND = 6
Ru        8.28233260318246    8.61325373239859    8.72375894553075
O         5.43787662322125    8.68854997584589    9.65602493262933
O         8.34173839459653   11.45686387723275    7.78768132830689
N         8.83653767684573    8.66759077786049   10.77129231227512
N         8.56000853667497    6.76986423943716    9.73511086928688
N        10.11214883168058    8.24789718439209    7.71561728229150
N         8.20505343703110    8.05882554342609    6.67703783244809
C         8.83323567723812    7.34957932269070   10.89074552187667
C         9.52193572169310    8.00005601922367    6.55957800399275
C        10.23387659724403    7.63696674800752    5.27750154742221
H        11.24525613287198    8.02345738368845    5.26004050989459
H         9.71228861352878    8.04143481179366    4.41772933113058
H        10.27507983258361    6.55264444193888    5.17687951295427
C         9.16012942864414    6.62312762374730   12.17443037132448
H         8.72512113915876    5.63164647713421   12.19302626314331
H         8.78045901494422    7.16503388607131   13.03292933161187
H        10.24108416277861    6.52969117227942   12.27636857777459
C         6.53090608473737    8.67639216176404    9.29442475946652
C         8.30214563309408   10.36472794959248    8.15012799261978
C        11.54227983227123    8.30103398948979    7.96816689137682
C         8.44039484898853    5.34339067130983    9.48463969172071
C         8.86478829538264    9.66650743227914   11.82517243947522
C         7.20741204217119    8.07570214427126    5.62168482556368
C         7.15362342282147    4.78554507831715   10.12194768280734
H         7.15737559306687    4.86529190559590   11.20525463743904
H         7.03037368009153    3.73774648115021    9.85715989499137
H         6.29685844010924    5.34473512807738    9.74982547461889
C         9.67854516936568    4.53581728751941    9.92179825767556
H        10.58273470137639    5.10388493177415    9.71203620775581
H         9.72198774856804    3.60578967733543    9.35859235182505
H         9.66826431811630    4.28023375323415   10.97631457673259
C         8.30251629476960    5.17993780583261    7.96597809600073
H         7.50070362198512    5.82248320122610    7.60966917514644
H         8.07597463105320    4.14689095823196    7.70805537796284
H         9.22717224445013    5.47061643110926    7.47243647257092
C        12.29145290673277    7.02524264197123    7.53530614684500
H        11.68129127216994    6.14925574133863    7.74649716062042
H        13.21767449694790    6.93963699051475    8.09993645199838
H        12.54860894110332    7.02079903951968    6.48112759620925
C        11.70961865014151    8.43484476164047    9.48677634531782
H        11.10516485726980    9.26703914706991    9.84007690340460
H        12.75180626141185    8.61289111966891    9.74594929397792
H        11.37470896278515    7.52620191123158    9.98202472005643
C        12.16093299312347    9.55858540919098    7.32868780921180
H        12.08410960949148    9.55520795616789    6.24518175216781
H        13.21258180950885    9.63392022569084    7.59610832150600
H        11.64108979366832   10.44150575434614    7.69667313134478
C         5.83407122701901    8.10671746106474    6.30857620770864
H         5.71158279670176    7.24169913586346    6.95650152923720
H         5.03772653794336    8.10039586066139    5.56810315730894
H         5.74266251167443    9.01113704275070    6.90788047787371
C         7.32157300318394    9.36035518582711    4.77909172260919
H         7.29382753635843   10.22729460544502    5.43616098296492
H         6.48782090870759    9.42232123181532    4.08395541983122
H         8.24391508072283    9.40031725295411    4.20680772679691
C         7.24320575976510    6.82823660118731    4.71722700896101
H         8.05667444022668    6.85545994232333    4.00051907839726
H         6.31287585983529    6.76481420450920    4.15754921807345
H         7.34237957328664    5.92898629595970    5.31885485828483
C         8.89947276821048   11.03881633401685   11.13639940599644
H         9.77055058776557   11.11987022793163   10.49009138582413
H         8.94160344201925   11.83498589324683   11.87589376204290
H         8.00150575984663   11.17168708760593   10.53515893460600
C         7.57485776370951    9.61402960432666   12.66580916413190
H         6.71120902592034    9.68307127265096   12.00745448234748
H         7.55178948553921   10.44988941812561   13.36079078431616
H         7.48997324179068    8.69472854926126   13.23806979361502
C        10.10780017858340    9.57344948135598   12.73168810232995
H        10.04115364377597    8.76330340059623   13.44956909767409
H        10.21409867800072   10.50062580642954   13.29008732243801
H        11.00231060871860    9.43106720046218   12.13167746432952

