83
CSD_code = LIYVEV | q = 1 | S = 0 | Stoichiometry = C35H41BrN5Ni(1+) | MND = 4
C         3.24820510865533    0.62914964961433    5.48363516122222
C         3.39336083444593   -0.75328908945375    5.59108944350766
C         2.25172213135259   -1.49765729485589    5.85506219483702
H         2.32557373888449   -2.56738337051224    5.95494307777196
C         1.02086272891798   -0.88496926274831    5.97889803870411
H         0.14294934261325   -1.48117556473537    6.17244373163752
C         0.90158459660858    0.48666697844666    5.85396397676666
H        -0.06912006473057    0.94344414074587    5.94656766915245
C         2.01717813926422    1.27562084704672    5.61678249471614
C         4.73894208961575   -1.42237518905752    5.44396462726023
H         5.43249378449209   -0.72817648227637    4.95553492599095
C         5.29710895698340   -1.77172417502528    6.82702874455876
H         5.42236643758481   -0.88003241763218    7.43871958518785
H         6.26358165278661   -2.25994791772593    6.72860505238614
H         4.62153379409066   -2.44745592291265    7.34482028888463
C         4.65443956370027   -2.67104404335842    4.56505096112676
H         4.14225511399271   -3.47928786252120    5.07751141283294
H         5.65605579411768   -3.01397560409692    4.31696321745757
H         4.12078216301424   -2.44622407678737    3.64531850150534
C         1.91647585170312    2.77807235009987    5.46511440776723
H         2.84704440550193    3.23413414133729    5.82663748033706
C         1.74764426540865    3.12797672811420    3.98299110579014
H         2.62457179754569    2.81775202877358    3.39941912419133
H         1.61736324141168    4.20053932192794    3.85889612912813
H         0.87980669876452    2.61648660752784    3.57571407617148
C         0.77296127246555    3.38428314010874    6.27827813242082
H        -0.19158260543957    3.13746902803904    5.84445936035926
H         0.86576488387894    4.46789787222967    6.28858065535243
H         0.79894130885979    3.02806406132863    7.30518676183369
C         4.88444815172566    1.80816217856743    4.06114968790877
C         5.15318555487248    1.97520507805114    6.26188543147148
H         4.91946313630766    1.79051591594843    7.29032052952881
C         6.13599116846254    2.71831855085035    5.70340083567071
H         6.91759516446179    3.29463751812997    6.15202088822406
C         6.65570766449493    3.15900868275756    3.27878280254632
C         7.78927621942715    3.95780444822067    3.30996454926451
H         8.23986726583828    4.25217584372725    4.24237835553865
C         8.32695183723417    4.35896331367230    2.09371072024365
H         9.20662850377466    4.98233935899420    2.08154955268864
C         7.75722777758200    3.95588566987570    0.89279597378834
H         8.18288939275286    4.24886504125529   -0.05168996865151
C         6.62512311668446    3.15679741673507    0.95527740659950
C         4.83821902399024    1.79852785367113    0.22176090919927
C         6.04714078435473    2.70580039575632   -1.45387155317323
H         6.81511551085276    3.28371891563740   -1.92346714359584
C         5.05572540978981    1.95451019276571   -1.98545958195882
H         4.79925194602215    1.76315116404320   -3.00727150046318
C         3.18272071901831    0.59452919415437   -1.15927886711676
C         3.34103316335395   -0.78850106474955   -1.24015979528296
C         2.20555857459160   -1.54872532412061   -1.48432290813466
H         2.28917187535081   -2.61931985602830   -1.56442579021412
C         0.96808339283220   -0.95046664599144   -1.61371619708265
H         0.09536032548793   -1.55883513554209   -1.79235976184309
C         0.83540367577931    0.42179011145477   -1.51186964940955
H        -0.14046070488735    0.86699580575101   -1.60640517334650
C         1.94437263747595    1.22592312398495   -1.29527713721436
C         4.69475014507787   -1.43965354683016   -1.08617689754368
H         5.37336499656742   -0.73817605488296   -0.58691162013477
C         4.62353702951133   -2.69520664222502   -0.21618303897714
H         4.07559418298365   -2.48592963659355    0.69882907377658
H         5.62861169857981   -3.02046001899128    0.04158308950712
H         4.13351141765793   -3.51013527882590   -0.73974268259443
C         5.26912837219362   -1.77160616158505   -2.46698156467376
H         4.60623980747852   -2.45217203213127   -2.99489988039162
H         6.24082420796379   -2.24842261690882   -2.36391610405373
H         5.38833567399749   -0.87421546429718   -3.07154869779764
C         1.82975011973705    2.72911610258851   -1.16339675088454
H         2.74966609694729    3.19001835127504   -1.54543694470292
C         1.68153034315188    3.09522541074816    0.31708046829445
H         0.82344393487325    2.58272299011331    0.74334475871883
H         1.54569454433903    4.16822702820340    0.43086781032658
H         2.56881110495766    2.79728565374307    0.88994689495165
C         0.66713920282172    3.31293787189563   -1.96547596262216
H         0.68153504017397    2.94558249412432   -2.98869801645597
H         0.74731489876875    4.39734747291558   -1.98918570467204
H        -0.28772860926348    3.06013075320799   -1.51402259561500
N         4.40392055095569    1.43474662129816    5.24695096972801
N         5.96313716078216    2.61425395396295    4.34709649960261
N         6.09534903772454    2.80057809347348    2.12452503729781
N         5.90622433572559    2.60814058185297   -0.09342509345919
N         4.33312258813089    1.41538556388313   -0.95069690315768
Ni        4.62593116869999    1.64125274560908    2.14464127148965
Br        3.15214263540852    0.02920939505716    2.16672963002096

