111
CSD_code = LIYVIZ | q = 0 | S = 0 | Stoichiometry = C41H49F6N5NiO7S2 | MND = 6
C         9.30447336889184    4.74400468692033   -0.59116920008433
C         8.07563589480974    5.31676053707819   -0.92511129962188
C         8.06624675177519    6.65205943389195   -1.31373891951040
H         7.13378372905566    7.12223204151373   -1.58357843937102
C         9.23812179671520    7.37874139867630   -1.38059510669384
H         9.21487040523879    8.40942818754899   -1.70271327925056
C        10.44374819454096    6.79198081844776   -1.03930997593064
H        11.35051954574946    7.37166025017203   -1.10232297682036
C        10.50198669837910    5.46688173082271   -0.62616794858930
C         6.79078358249822    4.52219544953124   -0.92057818316639
H         6.98525557059528    3.51837190644762   -0.53596638892503
C         5.73887932359787    5.14963890552138   -0.00312010699689
H         6.03948682901228    5.03401958723845    1.03480572555301
H         4.79255564093152    4.63076474840172   -0.13048919723298
H         5.58933842081187    6.20382847026692   -0.22182215531259
C         6.25693708386895    4.39487097012205   -2.35146125205214
H         5.96462741439105    5.36600911903039   -2.74309159752389
H         5.38665067040807    3.74387490868697   -2.36207982414086
H         7.01167977040488    3.97319845519681   -3.01286501008857
C        11.81313904431587    4.81342946395943   -0.26130692826836
H        11.62520616517488    4.06586411250876    0.51392173366376
C        12.84131319387137    5.80283835848927    0.29229752781061
H        13.59436991937448    5.25692598875422    0.85536454756513
H        12.37362371540129    6.51655497404446    0.96467987731625
H        13.33762591543539    6.34968189525678   -0.50793775673698
C        12.40366120420472    4.10200301351270   -1.48493506295181
H        11.74906150442745    3.31034932020270   -1.84109519967141
H        13.35852841673610    3.65732034987783   -1.21750009623873
H        12.56339756950670    4.81090220675695   -2.29663208691140
C         9.35737167720873    2.76885070659300    0.90922192764809
C         9.37539319425466    2.40471272891834   -1.28857397514138
H         9.35410767923317    2.67937089569114   -2.32367636011523
C         9.41209817907193    1.19059467620560   -0.69802420138790
H         9.43543295062663    0.20868685824887   -1.12117494233924
C         9.40326345710322    0.57204143277963    1.73484021522517
C         9.48232273492652   -0.81211381517100    1.71003866093862
H         9.55505103146586   -1.34963064772673    0.77990727877721
C         9.46139994164176   -1.48020236940048    2.92607710823583
H         9.51863041639988   -2.55737127405032    2.94478106537164
C         5.60183483646041    1.40043597055783    1.62283213031465
C         8.67548530633385    6.04469220397981    2.65727474443287
H         8.12748882049803    6.08824073836998    3.60325014856927
H         7.99676323581426    5.76577126245205    1.85362369767694
C         9.43744447666552    7.34340609900200    2.42724541322986
H         9.74968168176603    7.41471006839676    1.38621428300288
H         8.84598316359352    8.21898635465672    2.68340869556937
N         9.34848116068837    3.35236976887808   -0.28961194098592
N         9.40032207576738    1.42866923658409    0.65054135804028
N         9.30850606602959    1.24339990586745    2.87780608104910
O         7.04059307146184    3.43293774432921    2.40638200001709
O         4.88278458333736    3.06475935418348    3.48621587971392
O         6.76191322604408    1.56068334998886    3.94384104531065
O         9.69251890934610    5.05191457386263    2.72375968076045
F         4.87197545791256    0.36786299688881    2.04441811421673
F         6.67464038349671    0.88665319969220    0.98759897794592
F         4.89179510469109    2.05376770903871    0.70063072738963
S         6.12592535136362    2.49849594251097    3.05076568930553
Ni        9.34237112593351    3.07856103385467    2.85572335799483
C         9.07188007309318    4.82301467610588    6.28340410987947
C        10.20792058275216    5.42791500008581    6.83293557123553
C        10.13894642588752    6.78520870058606    7.12986603702348
H        10.99552400692436    7.28032138744668    7.55975796085965
C         8.98378789956883    7.50534201847339    6.89958734487448
H         8.94792389713132    8.55726710636380    7.14236352958690
C         7.86584195730788    6.88248528580844    6.37566386453107
H         6.96658237780340    7.45583169887236    6.22350021145930
C         7.88442860124088    5.53068355362148    6.05428958813589
C        11.45653181458931    4.64715915168468    7.18082398011121
H        11.37910430983230    3.63465758579201    6.77873603859717
C        12.73098450174040    5.25244932358487    6.58447925115084
H        12.78031574501883    5.06358520722846    5.51545307448529
H        13.59691638767699    4.77802233874315    7.03995071496378
H        12.79713076334582    6.32301356926028    6.76036749227417
C        11.57551544887250    4.57150778068702    8.70873635512158
H        11.77440586566346    5.55623511075536    9.12554638206569
H        12.39196952210193    3.90987662337532    8.98685766485246
H        10.65920171827151    4.19458125998901    9.15882154877661
C         6.65706463286256    4.82659317255553    5.52281772536208
H         6.96257282237516    4.13179466451602    4.73252648530068
C         5.60989250743313    5.76482074532976    4.92258083680482
H         4.88464842649870    5.15377198244654    4.39227810808195
H         6.04873030110298    6.46048108043657    4.21097327760413
H         5.09087822150722    6.32572519454447    5.69758957549508
C         5.99092121568662    4.00539265413041    6.63335594033707
H         6.66540493981587    3.26136495489361    7.04842911104198
H         5.13600520288607    3.48619792779250    6.20932734138760
H         5.65203680552294    4.65803868433670    7.43698593873626
C         9.18168784836581    2.82839123833737    4.81137059433657
C         9.10329299932358    2.49327414967007    7.01799602360105
H         9.05030486302532    2.78364770670704    8.04734657061613
C         9.16759146078500    1.27311999458762    6.44807401568378
H         9.17857777357202    0.29769989054311    6.88639439971622
C         9.29718477140205    0.61053182303570    4.04589120614130
C         9.37036223087647   -0.77549149592135    4.11463273202229
H         9.35658096444462   -1.28567062573225    5.06245125641581
C        13.28384331031393    1.14762018188946    3.50244316052832
C        10.81927321500091    5.62675210303211    3.39678825865750
H        11.71641371519956    5.27814520757147    2.88307578698420
H        10.86123741808267    5.27126860757120    4.42742135076322
C        10.64288030320486    7.15185192138269    3.34779660658440
H        10.42399337248225    7.53407717325849    4.34493377390864
H        11.53492636801012    7.65131186630543    2.97694538919382
N         9.10848303357075    3.42739201577321    6.00408502775105
N         9.21560987295376    1.49053011873669    5.09779575274611
O        11.60065051294868    2.83051790358190    4.50286797910061
O        13.45128215113037    3.77722870181208    3.21798415324942
O        11.66617708031809    2.55892598997818    2.08229704493495
F        14.06503516295578    0.84106199082520    2.46524413599056
F        12.33928786592420    0.19132881559578    3.58224128615013
F        14.02076809260326    1.06442926826237    4.61113560637278
S        12.41020199982501    2.79336901968081    3.30446454790265

