60
CSD_code = LIYWUM | q = 1 | S = 0 | Stoichiometry = C27H27N3OPPd(1+) | MND = 4
Pd        1.64778444170559    1.68308415813237    9.22766817605868
C         3.38628218847806    2.57602134072587    8.89238531754321
C         4.66591895011628    2.45170507266588    9.41314721838227
H         4.87334357887924    1.76628407421640   10.22563740169992
C         5.70398429938322    3.21423525323570    8.89052526517835
H         6.69460883751655    3.11478464979436    9.30877822277852
C         5.49187210715528    4.09750195143201    7.84299033462787
H         6.31373633110971    4.67801499540201    7.45313195462406
C         4.22615146379205    4.24068206014803    7.30212228909189
H         4.03818711650769    4.92970696240473    6.49030718201191
C         3.19323732975825    3.48221685981657    7.83613385154359
P         1.46122084076998    3.56850043583022    7.36123045947319
C         0.96630244877053    2.15531636702981    6.30151926913608
C         1.68120862296164    0.95676085248099    6.34176430966924
H         2.66321512785641    0.92335888952604    6.82185218521905
C         1.16821195267400   -0.16109964840634    5.70527573285906
H         1.72656726454220   -1.08600254622685    5.70318945613834
C        -0.05690562227944   -0.09748264896741    5.05481317861643
H        -0.45503323557024   -0.97671527294352    4.57234182594975
C        -0.76366010428228    1.09179925440907    5.01584278240184
H        -1.71081880411816    1.14353173762908    4.50011042381920
C        -0.25371474289629    2.21925453852994    5.63894045313175
H        -0.79294797235010    3.15818242015229    5.60022000937935
C         1.09282677516098    5.08217330964276    6.44752547983499
C         1.24714190601313    5.15735569559365    5.06717544134083
H         1.54092511974982    4.27753726301159    4.51108640874728
C         1.02179852351351    6.36004442183733    4.42258608467626
H         1.13908783161236    6.42660186388228    3.35169211849164
C         0.64949615915064    7.47997545883792    5.15123728618186
H         0.47446354083726    8.41563850457832    4.64285324303011
C         0.50766115701555    7.40671441189012    6.52867029776995
H         0.22609180664151    8.28367886973659    7.09121749433564
C         0.73496756794443    6.20862020086995    7.18109205689848
H         0.64535024093965    6.12748743003313    8.25644013667031
N         0.71607192748883    3.47887722258351    8.79498477100186
C        -0.73943741989420    3.39721170392203    8.83708632480983
H        -1.19751565957747    3.98146307915087    8.03046767476229
H        -1.07216129627577    3.82372077736468    9.79536123055779
C        -1.22660393955646    1.95161055631417    8.79869719672815
O        -0.46825103873437    1.01581564766725    9.10232006474133
N        -2.49530247728491    1.72129107416544    8.45855202999136
C        -2.98391326880238    0.35968959074350    8.37200122166242
H        -2.16139008754225   -0.32075281400982    8.58039507369560
H        -3.36858133279516    0.16812544864799    7.36967070601609
H        -3.77868208968154    0.19608724235959    9.10069601022248
C        -3.44518884724297    2.76758462987418    8.15096352732904
H        -3.24578772350096    3.21192344964580    7.17246477192958
H        -3.42677086360827    3.55177121216614    8.90749086774625
H        -4.44246979737356    2.33465064729003    8.13224566506272
N         2.39204462123815    0.00105624569098    9.95919850154525
C         2.25604351115910   -1.17452278698119    9.34754965163754
H         1.97486795843702   -1.14624055550931    8.29930742135905
C         2.45816839453706   -2.37842913869052   10.00076664730046
H         2.34444624925893   -3.30812954106934    9.46676606759763
C         2.80425731119917   -2.36454550799684   11.34333463096445
H         2.96959504233118   -3.28555485645248   11.88001504666365
C         2.92947194117548   -1.13907804032591   11.98157762258571
H         3.18899981728666   -1.08191067261378   13.02650744344916
C         2.71708464467732    0.02015957585695   11.25597323846287
H         2.81384137403620    1.00215662316607   11.71870324487472

