49
CSD_code = LIYXAT | q = 0 | S = 0 | Stoichiometry = C21H22Cl2NPPdS | MND = 4
Pd        6.76480697705207    1.20349047560166   14.06884889207587
P         6.19056747728569   -1.00353797175770   12.30397070736432
N         7.22859109494959   -0.71644507712274   13.49038755456312
C         8.61679368064147   -1.10344756271702   13.58311597304034
H         8.85922984025369   -1.93655736303913   12.90787257054721
H         8.80080994773974   -1.44804348556549   14.61094034325683
S         9.04495618256736    1.65018908436521   14.02377806403257
Cl        4.68064176202211    0.40210773513299   14.20161654380395
Cl        6.25754682213727    3.27921772017181   14.71589946913003
C         5.53864645188139    0.47164915879973   11.43122815940546
C         3.73731460166327    1.73521987283152   10.47692406249624
H         2.70095885076500    1.80353585653308   10.18164014740720
C         6.39263358912158    1.56623638714417   11.26081874231804
H         7.45442762721685    1.48830814618344   11.51156108721145
C         9.56946800568305    0.05518967369163   13.27268682827770
H         9.58929366651402    0.25488539423060   12.19914159978302
H        10.58279034677331   -0.15851108546800   13.61410444463210
C         4.21392399166379    0.55775425851445   11.02904295314315
H         3.54761625175046   -0.27618018363844   11.19299490787769
C         5.90385968304584    2.74279101665459   10.71733467752165
H         6.56022466101285    3.59254960320211   10.60134227593812
C         7.50774414159207   -1.29664250510079    9.80328748797879
H         7.21758355525521   -0.27804948193453    9.58611604380975
C         4.91903536246749   -2.24663046467167   12.68476320137948
C         9.19843516972523    1.29326036948535   15.80442573150717
H         8.49739400782605    0.50584885647087   16.10339703313701
H         8.93487070497082    2.22438605857950   16.30449520726467
H        10.22647079482029    1.01934040122073   16.03115723614404
C         7.46913297732176   -3.21147749951313   11.25343556948949
H         7.13688880603204   -3.67685882657002   12.17324025951956
C         7.09551468721607   -1.89741434601347   10.98541654692606
C         4.15462279662202   -2.79734245443622   11.66367871583670
H         4.28907813556843   -2.45626031566007   10.64559782110130
C         4.79687499434356   -2.71870819580542   13.98366976872107
H         5.40848566922762   -2.27654100366767   14.75771676229291
C         4.57340069458933    2.82889070938878   10.33377672858156
H         4.18967101043577    3.75384967116727    9.93091347819736
C         3.88732519849979   -3.71970913211006   14.26849431289118
H         3.78671152832497   -4.08608190131459   15.27926168892068
C         8.23842119409264   -3.91814411155482   10.34760528310434
H         8.52324494644712   -4.93790272314500   10.56114301531832
C         8.64044134979849   -3.31584280439828    9.16602382875649
H         9.23840191675228   -3.86697586210297    8.45574030527392
C         8.27190196043390   -2.00852717530269    8.89465546431448
H         8.58072779714285   -1.54067378530509    7.97137954092273
C         3.23657603139967   -3.78984162150768   11.95636271611891
H         2.62989849481266   -4.21084876672367   11.16788020945943
C         3.10079094532756   -4.24809921481950   13.25690727520747
H         2.38345361721503   -5.02370552840797   13.48100876400384

