90
CSD_code = LIYXUM | q = 1 | S = 0 | Stoichiometry = C44H39ClN3P2Ru(1+) | MND = 6
Ru        3.88637878620981    9.54727831039553   -4.66581625587844
Cl        3.19253612165159    8.47899485507127   -6.66082967135930
P         6.09238816293498    9.31344075348364   -5.47239285157394
P         1.62410768262623    9.48651519950719   -3.99609196766802
N         3.63045170847254   11.20943134284165   -5.63480474040287
N         4.21077314148104    7.94426782930169   -3.49753421024233
H         4.10921300820828    6.94619051169255   -3.68646047263013
N         4.45616218860320   10.40589755191799   -3.03897224938861
H         4.54933055984606   11.40876974774771   -2.86770117604020
C         3.43320122920786   12.08522009002324   -6.35504180208435
C         3.19084009070015   13.16945578225982   -7.25194114744512
H         3.15016717766934   14.11061955016341   -6.70418132487596
H         2.23951295467056   13.00988118850011   -7.76013011665704
H         3.99206954754670   13.21497886671908   -7.99034220858408
C         4.62518737744325    8.22752358167198   -2.28024072204162
C         4.93092016198951    7.30160493710393   -1.25157901275773
H         4.82599096029135    6.24457314452552   -1.44839821188434
C         5.35010851138651    7.75908976561314   -0.03787827020222
H         5.58443048155886    7.05889260811727    0.74905204383686
C         5.48781036660583    9.14230086099242    0.22161963104782
H         5.82245038314647    9.45790203036660    1.19712777248504
C         5.20500906919878   10.06866878248465   -0.73756011137237
H         5.30711546679759   11.12705144476110   -0.54812542203596
C         4.76733506052508    9.63975454716426   -2.01182188970736
C         7.18316981985072    9.67600135815822   -4.06539436153683
C         7.33856297867775   10.99833142694550   -3.65216735690501
H         6.89252945081384   11.79367005107623   -4.23808763920392
C         8.05603338913409   11.28825651706648   -2.50760750766672
H         8.19020653649907   12.31506967949289   -2.20085601672278
C         8.59978502577792   10.26114246036934   -1.75069814624604
H         9.15614063106135   10.48904830914645   -0.85473029196795
C         8.42437969828984    8.94498358380345   -2.14171349948165
H         8.83813851033839    8.14427969332325   -1.54784350553059
C         7.71626108904836    8.64932530603060   -3.29388922980857
H         7.58281731254444    7.62070175660022   -3.60032737297457
C         6.62964731743507   10.41142328495362   -6.81849742959122
C         7.83944742005467   11.09919973312906   -6.81208427068169
H         8.50339569727706   11.03303955759878   -5.96166129468641
C         8.19664471561088   11.87187548372711   -7.90322977350911
H         9.13656271209558   12.40299064229995   -7.89583477068744
C         7.35968084712267   11.95901179259283   -9.00362850440480
H         7.64655502125270   12.56146437134918   -9.85204796649983
C         6.16087406038443   11.26335476986853   -9.01859423485705
H         5.51530136956261   11.31518344502870   -9.88294989839840
C         5.79539760205941   10.48965703067272   -7.93242749349440
H         4.86813152094567    9.93082341860972   -7.94476131269818
C         6.70301733165881    7.70616815599314   -6.06284665903849
C         8.04891570298645    7.61954996490607   -6.41913492116327
H         8.68341597017542    8.49178779386285   -6.34217045581104
C         8.56692657376075    6.42063770729491   -6.86745256431864
H         9.60863251483352    6.35624418014142   -7.14312587430742
C         7.75018606287004    5.30383176786861   -6.96786543420896
H         8.15764332708464    4.36973817773047   -7.32317140345857
C         6.41317441698932    5.38964138245710   -6.62053642391784
H         5.77485070395087    4.52336237450382   -6.70781633162841
C         5.88662812497911    6.58780790030339   -6.16783784292178
H         4.83658502281920    6.66310296635817   -5.92827369306477
C         0.45674392781578   10.62899198339420   -4.79469604730759
C         0.47012137945863   10.66780104757615   -6.18789293553016
H         1.17960920678173   10.05654780199924   -6.73133966134858
C        -0.42950431492196   11.46876753161817   -6.86679091456942
H        -0.42295089593120   11.48926272672501   -7.94668435222447
C        -1.34837202971263   12.23173573125207   -6.16361115697910
H        -2.05228002215071   12.85534837803772   -6.69330795621535
C        -1.37113797714917   12.18560999314039   -4.77933359666162
H        -2.09438076088772   12.77026949055007   -4.23096928177113
C        -0.47582218810723   11.38556671799741   -4.09137028082562
H        -0.50658132455204   11.35238185915781   -3.01135714947288
C         1.61525377207010    9.91859526910200   -2.23147277491179
C         1.81539367184062   11.24729543129976   -1.86003173460660
H         1.86653469635542   12.01098574795336   -2.62748908966015
C         1.94456966168657   11.58331787108258   -0.52613902980750
H         2.08087582501181   12.61602029204792   -0.24080014336878
C         1.90330151498914   10.59450910090786    0.44558010376257
H         2.00817201547008   10.85812877242099    1.48661310856501
C         1.73292881795796    9.27049159010302    0.07963863171731
H         1.71129258495886    8.49894905601878    0.83413402751356
C         1.59203972276997    8.92934819990679   -1.25460219671634
H         1.45577279000177    7.89481159629522   -1.53910220681980
C         0.68406442269637    7.93132302933795   -4.04540595550037
C         1.19396746524162    6.76734772720971   -4.60531669796547
H         2.17118064040609    6.77410195161930   -5.06442211735532
C         0.42962377468196    5.61256164744697   -4.61090501137542
H         0.82569761974492    4.71050458856283   -5.05244403764912
C        -0.84023528351644    5.61563916655071   -4.06045854633132
H        -1.43490052382990    4.71502334549237   -4.06783851046391
C        -1.35399715614330    6.77869097180111   -3.50565802542915
H        -2.34662809143490    6.78374428073501   -3.08144704911385
C        -0.59903919517602    7.93483108899719   -3.49824585977604
H        -0.99844242312401    8.84298668799846   -3.06812568293564

