115
CSD_code = LIYXUO | q = 0 | S = 0 | Stoichiometry = C51H59NNiOP2 | MND = 4
Ni       10.71972035932956    0.77847345845948   14.14397819448256
P        10.16692227021061   -1.50439797267075   13.69362792091985
P        10.07406907220154    2.73548643009674   13.34002848318875
O         9.24531373022798   -0.44092234212567   13.18232303743594
N        10.82822419249413   -0.87244139950247   15.03574103028213
C        12.39248996695152    1.06327413546353   15.05024334606152
C        12.95016684211942   -0.04826145281493   15.57365880893830
C        12.11003354704033   -1.30003452535106   15.57542106531871
C        13.16898278445602    2.31603696734471   15.11567483595700
C         8.62883120021979    2.73480520122686   12.15652589152344
C         8.97472842251207    2.65694749893188   15.87235705302026
C        12.79318914700887    3.34602077036518   15.97771005489201
C        11.95390898647226   -1.79140260715885   16.99463389044664
C         8.49762668584899    4.82369278320437   14.69383104108289
C         7.88823830138130    1.96764832529809    9.87050986986241
C        11.48183437840332   -1.88087156210724   12.47563507942458
C        16.75878610121426   -0.29740036770798   17.46465624240783
C        13.62323178370024   -2.21475565480061   10.75592172828103
C        11.30137293444833    3.92862564958130   12.57585606852692
C         8.27830417025666    5.48856438193204   16.05391878690042
C        14.57881086959850    0.69363970526376   17.31720964017933
C        12.34891424687532    3.16986612719584   11.75672687366163
C         8.75584120237592    3.32299197811923   17.22582668827831
C         7.39305039032284    2.05896536494208   12.75283213592094
C        14.27394524739933   -0.10756062855657   16.22193160015714
C         8.54299904426993   -3.61510454938358   12.97639938700210
C        16.46282902006767   -1.10174047168608   16.37752117593270
C         7.77093423041364    4.48052792784784   17.08103321843291
C        13.47976833459586    4.10602361621634   11.34203858435947
C        14.34566506929292    2.46140950661667   14.38078935933597
C        11.87455252595435    6.02381557186228   11.34349849666887
C        15.22801909446549   -1.01056100475440   15.76267249583925
C         9.41809503016291   -3.73415684544719   15.21517706917320
C        12.93381937784095    5.28069294438214   10.53682038774710
C         9.32241543788777   -3.08419291664414   13.99478760854925
C        10.74106083235761    5.07919364706006   11.74207630503470
C        12.59410993907164   -2.94027750279554   17.43455679933439
C        14.70013314004021    4.64270643752431   15.31839387602444
C         6.65871500960290    1.30362808400788   10.47806500374751
C        15.81245551632067    0.59854539665261   17.93284273996035
C         9.03107053177462    1.99104523765914   10.88097147328775
C        13.54717422672887    4.49979964916097   16.07332513142088
C         7.86425905931099   -4.80264867185975   13.17532731854519
C        12.45526427691263   -3.35605487339954   18.74753766016969
C         8.74080572728047   -4.92521474989327   15.41073960459906
C        11.67423555971847   -2.62775524254714   19.62771132081566
C         6.24720973053039    2.04491890646831   11.74400536969237
C        11.89815811882882   -3.15844489669597   12.13686202299179
C         7.96737537271789   -5.45867909213335   14.39257665441265
C        15.10220624694882    3.61356695502842   14.48277229216662
C        12.14715645477656   -0.77498788918395   11.96488003493736
C        11.17593411929547   -1.06025369368401   17.88339257611366
C        12.96830853066425   -3.32075555681084   11.27279724856654
C        13.21337878544417   -0.93577205605032   11.10237447934297
C        11.03364178779316   -1.47881937034958   19.19244067807797
C         9.49341887102153    3.67572643956072   14.84909645870828
H         8.39104643282571    3.78015767433743   11.92235443810309
H         8.03119568796927    2.22845324559895   15.53087698518036
H         9.70567258011357    1.82514253677579   15.95588347354386
H        11.91881963938024    3.21007730865927   16.59642358013015
H         7.53993747558892    4.46268982296344   14.31895892955431
H         8.87427232661776    5.56862926491933   13.99192404230567
H         7.63993967410412    2.99125098657631    9.57485429318356
H         8.20234917047704    1.42856760997934    8.97355363874922
H        17.72316189782500   -0.37019555086949   17.94605936399422
H        14.45906957752308   -2.34998205096479   10.08506596471356
H        11.82181361391586    4.35257110940774   13.44525578353387
H         9.22197172910509    5.91502409537485   16.40248564983477
H         7.56077942260971    6.30568734429489   15.95037270522806
H        13.83739056536330    1.38431609637469   17.68822395867211
H        12.74683939109010    2.35185692962618   12.36155553275822
H        11.89514808112897    2.74277776331598   10.86067428941052
H         8.37246137964354    2.59537818053422   17.94376767588921
H         9.70523459306504    3.70397668196709   17.60977738150004
H         7.64526208530683    1.03470460606904   13.02700595002508
H         7.06123884435341    2.58020149320795   13.65065441156612
H         8.47797674321288   -3.08450471892481   12.03527211278606
H        17.19757347518540   -1.80294632471263   16.00771778614080
H         7.62919731112671    4.97421994218543   18.04465810143406
H         6.80147717247943    4.09275279654638   16.75954633356673
H        12.57873184408418   -2.09029248866552   14.96730599529472
H        14.21599722359856    3.55844886534969   10.74985461124986
H        13.98039669727613    4.47952803202557   12.23747663598763
H        14.67083659189447    1.65385702144107   13.74094278787978
H        11.47256736918912    6.85284620112498   10.75662619589810
H        12.33205432093843    6.43958947221156   12.24409853503090
H        15.00411569265109   -1.63292214337471   14.90723972479039
H        10.01836873134236   -3.30167508232921   16.00373948441724
H        13.74524132435462    5.96135122801873   10.27154219544900
H        12.49010985770959    4.91266298378324    9.60845295178547
H        10.27080351855675    4.69490888344045   10.83565312742678
H         9.99093970041475    5.63771298076601   12.30249569744310
H        13.20351186881502   -3.51202757652534   16.74786245700187
H        15.29009174613320    5.54461347569474   15.39299072510790
H         6.89553192120736    0.26804182602951   10.73025795970588
H         5.83713729508828    1.29818357660817    9.75803623457448
H        16.03685327312386    1.22435292337537   18.78461175189986
H         9.90381984533303    2.45852298546073   10.42200707136477
H         9.29509397192254    0.96590404707994   11.14953150097075
H        13.24416384112042    5.28854589653859   16.74792875569669
H         7.25567984300581   -5.21942286780800   12.38551150236025
H        12.95699491609700   -4.25249562466616   19.08278392723097
H         8.81548954179772   -5.43680622184908   16.35954950904015
H        11.56484028318861   -2.95508346157246   20.65157148275931
H         5.96937860870397    3.07221073147243   11.48919416063539
H         5.37398478594486    1.56458861151605   12.19122094691320
H        11.38685709755829   -4.01945607256937   12.54663250585037
H         7.43873942339330   -6.38805207605152   14.54813032963611
H        16.01618606289296    3.70777164772376   13.91369127471298
H        11.81056603612102    0.22750764912266   12.26355430315333
H        10.68221195386872   -0.16775498669514   17.52618874233355
H        13.29531883722156   -4.31537460318206   11.00547656310791
H        13.72759955513805   -0.07235478884658   10.70518432003211
H        10.42420341004638   -0.90805003850945   19.87837572206305
H        10.42374830529904    4.10164094877205   15.24649573135581

