40
CSD_code = LIZDOP | q = 0 | S = 0 | Stoichiometry = C10H20Cl2N4NiO3 | MND = 6
Ni       11.29802724119552    2.51981362555541   12.26792544513215
Cl       12.51193187483465    4.29980623889265   11.85330995825760
Cl        9.76317416694732    3.63979354863563   13.10050904639012
O        10.24292104668625    3.83010790709070    9.69723361383671
H        10.97487492737623    4.29980408284248   10.15146553409588
O        13.58711579240920    1.88959496674008   10.65969364044855
H        13.54258460855632    2.88059094068016   10.77228585139321
O        13.15193919812780    2.63671586161632   15.02697701536188
H        13.52355824694637    3.26576450255664   14.38597612955615
N        10.23151884807328    2.57050484686857   10.27751232243942
N        12.58731422890084    1.43421130455010   11.47282109668270
N        12.10555074559494    2.03507660103385   14.34166286791442
N        10.38688976438369    0.67186809348355   12.81695132354959
C         9.23734316009259    1.82435795022651   10.01063114513445
C         9.24630829883380    0.42929858826506   10.58010454141930
H        10.15820110859254   -0.07857424613733   10.26151333444800
H         8.39511173623118   -0.11526002256943   10.16925027715352
C         9.13293584580170    0.39600139405592   12.11168952057703
H         8.40868537238599    1.15407189921481   12.41920526165580
H         8.75243467532382   -0.59387777769773   12.41448396198875
C         8.07441837262030    2.22540872114271    9.16338980212129
H         8.12477264332297    3.28859745280472    8.94592745942645
H         7.14294940607113    2.00201002509511    9.68045473426688
H         8.08773067332151    1.67018683178664    8.22593132746249
C        12.46976001660039    0.17255754491316   11.59370918569621
C        11.40868210624381   -0.34293126480889   12.51816592732887
H        10.95243910948281   -1.24950433153428   12.09914763806710
H        11.91165821895767   -0.63547014094387   13.44772281530414
C        13.37985193895073   -0.78653815631086   10.89884717554353
H        14.41474646795745   -0.49737089215860   11.07860325473745
H        13.22051590450453   -0.72712756636825    9.82214900091779
H        13.21735093466317   -1.80619339150662   11.23472665236496
C        11.29006366107229    1.33560159289953   15.01732441927649
C        10.13965261849638    0.72897448127398   14.26045405293870
H         9.90535712931854   -0.26865169173066   14.66392016591220
H         9.27704693874976    1.38170827677876   14.43356862060238
C        11.35532586965424    1.11761570107425   16.49216080747178
H        11.85586034451152    1.96256500426949   16.95980409993607
H        11.93636780297056    0.22098666447459   16.70969131486427
H        10.35872895523550    0.99750483294429   16.90869965832638

