52
CSD_code = LIZFUV | q = 1 | S = 0 | Stoichiometry = C20H27ClN2RhS(1+) | MND = 8
Rh       -1.07333934781426   10.50227127120030   11.45629789769191
Cl        0.49496142025735    9.47133953048869   10.14653152217358
S         0.63109728451093   12.11379266361877   12.31729405161457
N        -1.10876543981330   11.89554544923795    9.90900587916125
N        -0.44263716564471   13.71185692829548    8.82329825544722
C        -1.09556119306068   12.92052879147382    7.90091076816558
C        -1.35800514785282   13.07750716850774    6.54675860101846
H        -1.04506528488798   13.95430362652149    6.00299362309011
C        -2.03009905157583   12.05141717852838    5.91632704980443
H        -2.24874229840972   12.13422710742401    4.86353179435481
C        -2.42399264973330   10.89848233771462    6.60181261815768
H        -2.93195469567691   10.11743305084921    6.05844810094545
C        -2.17085186132449   10.73624163121208    7.94593283621749
H        -2.44469723646157    9.84049684412848    8.47810330368289
C        -1.50601295822829   11.76743416834768    8.59916934222234
C         0.16098481252530   14.99385242814796    8.57520721056706
H        -0.20387374181098   15.37705941716628    7.62530793788202
H         1.24863105831458   14.90739188408227    8.52091369765173
H        -0.10489021794336   15.69932036664593    9.36252343347959
C        -0.46957447368411   13.04807955517740    9.99896093805556
C         0.14441826774263   13.53218708966675   11.26081264759234
H        -0.57356004970469   14.10828015241619   11.85079403778093
H         1.02886437250272   14.14183938621514   11.07769447469122
C         2.24740017259797   11.72405031872452   11.60948276611261
H         2.63558144744076   10.87900901196217   12.17005892001384
H         2.89853746071906   12.58423587351507   11.73669502053593
H         2.14091586293030   11.43939651550065   10.56675135862966
C        -3.23471787705681   10.37068745552124   11.96682359665925
C        -4.40709457899183   11.07973526833142   11.37724164164208
H        -4.38869030542038   11.04410088265007   10.28964284710986
H        -4.44251723179827   12.11956763884922   11.69072940272100
H        -5.32174940557193   10.59067558180042   11.71593468667475
C        -2.49488225798483   10.75270275879890   13.11210410926965
C        -2.75512818848248   11.92528477195603   13.99786230627129
H        -1.83166074846765   12.31069645848170   14.42495893120855
H        -3.40109947851929   11.61471326045101   14.82039402892586
H        -3.25503967319797   12.72716767825641   13.46037788673342
C        -1.54293342455016    9.69168067132226   13.40434142170998
C        -0.69201734917304    9.62321426166087   14.62767673056365
H        -0.37430268828526   10.61224657448371   14.94913163453104
H         0.18985004376044    9.00910794558608   14.46210350394991
H        -1.27222474984413    9.17348530860562   15.43493389181344
C        -1.71916130558724    8.65778589300672   12.44631867626489
C        -1.09293650027249    7.30536943143396   12.44670405950092
H        -0.77609220618212    7.01987666241697   11.44555169263931
H        -1.82736101921112    6.57526291779944   12.78983789895170
H        -0.23090673974938    7.26588323431848   13.10657741932488
C        -2.72695707720127    9.09405107875826   11.51138218702008
C        -3.35074026131825    8.20940418761607   10.48535329062617
H        -4.03490153370836    8.75686484166825    9.84254483069502
H        -3.91639185220965    7.42932116988340   10.99858831954495
H        -2.59471293689396    7.71623431957415    9.87646691891001

