57
CSD_code = LIZHEI | q = 0 | S = 0 | Stoichiometry = C20H22N8O4PtS2 | MND = 4
Pt        8.85922232230686    8.90871156676875    2.15514586645015
S         7.58813984407327    7.49365729574759    0.64286366471369
S        10.12186736635468   10.13612723025999    0.50202094886702
C         7.93141223634082    8.38949581558064    4.77717795695227
C         8.98660733042848    9.36347921156163    4.97496332305741
C         9.65397970510399    9.78290901164754    3.79393094912596
C         7.10479694418224    7.84855257663120    5.89650578333814
H         6.37603813988019    7.14608994755804    5.50284265022269
H         6.58496804524456    8.66043442079402    6.40252133030047
H         7.73790470551561    7.34285557689314    6.62414656458696
C         6.68513872410897    6.81605744573791    1.95426286513201
C         4.86496918967938    5.25205761603856    2.50857655012643
H         5.22780639146078    5.40861988954149    3.52097552266094
H         4.81801930806889    4.18343189684705    2.29584590637252
H         3.86116101893536    5.67618355096111    2.41834923038220
C        10.69136472374784   10.68541968039794    3.91436986585403
H        11.23495635891160   11.04644194831511    3.05197230346587
C        11.05618060201146   11.17252864549407    5.17192971683026
C        10.38675727263380   10.77539919865204    6.32410314969717
H        10.69210837741870   11.18014803030344    7.27664320535186
C         9.35285220389706    9.86803321485716    6.22450393693141
H         8.83245065189250    9.55044220951567    7.11467342115864
C        11.20405330185199    8.89839828728466    0.13712933243954
C        12.37762569704783   10.14377323975523   -1.61529883275673
H        12.67409715497307    9.84609532753127   -2.61932397607223
H        13.16959138143935   10.75333601941695   -1.17300062974547
H        11.46846782884136   10.74022217689957   -1.66731027172890
C        11.73608883996993    5.62813390379077    1.32409248942659
C        10.73008077391252    5.48212264114881    2.42909800135644
H        11.00919250785472    6.09389972180996    3.28931758734318
H        10.63653229894954    4.44848958129676    2.74327723775533
H         9.74713064385959    5.81542335631087    2.08477426283562
C        12.62168251233506    4.51852918753174    0.97595337259210
C        13.00199078471178    3.56180670927816    1.92175253139238
H        12.66476275059116    3.64228348959507    2.94305572772464
C        13.83952967741988    2.52416266859118    1.57144685202460
H        14.14505210715820    1.78138669832660    2.29248724155506
C        14.30355113133824    2.42976765701914    0.26450233687717
C        13.94506375262068    3.37653002494080   -0.69017372088237
H        14.32202868232585    3.27716417977685   -1.69654419681185
C        13.11238092655531    4.41197553490384   -0.33092269638705
H        12.81131346562760    5.14921689733247   -1.05745105860788
N         7.76092193380378    8.00932438558040    3.53954843490240
N         6.83504225373976    7.10597985471795    3.22613017709617
N         5.78199771655590    5.88847822582546    1.60093776039093
H         5.64725550268578    5.74983043329278    0.61080759276727
N        12.14488725314409   12.09657559399166    5.27498324387021
N        12.12249083563336    8.97080067807965   -0.82299798420674
H        12.75771160576488    8.18579166283485   -0.88773082175858
N        11.11849247821689    7.76527328205354    0.86992210979864
H        10.33026287745445    7.82002272309221    1.59072162023786
N        11.87723586937899    6.69650511961710    0.62436702568577
N        15.16719968037836    1.33983741173844   -0.10546192672917
O        12.37853039317717   12.58304229783556    6.36550760485599
O        12.78358033223178   12.34043401020837    4.26830424931342
O        15.44767656520792    0.52780306811837    0.75118485982592
O        15.56239702099774    1.29940797028171   -1.25181024798257

