47
CSD_code = LIZKAJ | q = 0 | S = 0 | Stoichiometry = C12H18F6N2O8Pt | MND = 6
Pt       -0.56564467898384    5.07052020668612   13.51046698299117
O        -0.95541584528377    3.21790688217104   12.67775740376534
O        -2.59693247796586    5.40969874737647   13.55819342591264
N         1.47753932039120    4.74446712756450   13.38308929271902
H         1.89858027925888    5.58572859969653   13.82036218465227
H         1.71248516455889    3.90413773288450   13.92442607584558
O        -0.46982025116479    6.94008242701786   14.37732181090755
O        -0.94487977786170    4.43301888939997   15.41066284653350
O         0.48997090110572    2.31493891846694   14.08761493741282
C        -0.43684488962496    2.21695020331059   13.29888797274340
N        -0.25193036471294    5.68592907761008   11.54439790502436
H        -0.68858811378460    4.97087813526816   10.95753425995158
H        -0.79546975810545    6.55937387672555   11.43490032471644
O         1.63105459237342    7.38561894285179   13.82608507124115
C         0.59124135742284    7.64958179493362   14.41941870156822
O         1.08732454263395    5.10778018528267   15.97978820811089
C        -0.01407948916357    4.67168210568312   16.24659621809016
O        -2.38777766194557    7.12715128312030   12.15877988508631
C        -4.51982120968235    6.70835999170217   13.18196166341180
H        -4.95059654896110    5.90090352394479   13.77322453794389
H        -4.61773451676474    7.65837767627627   13.70889293479676
C        -3.02287128719702    6.42219155960742   12.92787034428521
C        -1.04959170416331    0.87980316537732   12.93330235697600
H        -1.90582967740976    0.71970019446411   13.58488015044841
H        -0.32512738242149    0.08771379431441   13.09628423596326
H        -1.39441703270234    0.89083324721987   11.90389118939391
C         0.45518038367179    8.88779646822428   15.28085129288374
H         0.52531771316573    8.57199301896692   16.31989118920188
H        -0.51557123825943    9.34731577780655   15.12289231582028
H         1.25878919006395    9.58072805431148   15.05229703800394
C         1.18106901739560    5.80821052073498   11.25472924648654
H         1.54047160824502    6.75217197831682   11.67421052063751
H         1.37462695098497    5.78455184771820   10.17834482487294
C        -0.41390143239236    4.33467790995633   17.69848882072658
H        -1.49999677765448    4.31411672966204   17.78377972087704
H        -0.00175282593253    3.35823607356072   17.95800540617950
F        -0.38444500836736    5.22515338186746   19.88620873516860
F         1.46865900068553    5.28409221841606   18.81310643275721
F        -0.12481150471968    6.62441152209096   18.28109607017145
F        -6.58940194074320    6.81258893102662   12.04053513028156
F        -4.99170909349845    5.77767590312310   11.04669085966302
F        -4.97025234567598    7.92093255252160   11.17817447936027
C         0.14693779233633    5.36616667911951   18.65497937987456
C         1.88209459869508    4.65832067398810   11.97988283678290
H         1.56370197299608    3.69478827531882   11.56856412517888
H         2.96881227267157    4.74393265806274   11.88431329191761
C        -5.25584182351221    6.81081053624741   11.86246736266088

