37
CSD_code = LIZNOA | q = 0 | S = 0 | Stoichiometry = C14H12N6O2S2Zn | MND = 6
Zn        6.68941499696685    3.96241293018398    5.60998280739254
N         8.30640733663083    4.01765376000549    4.68527585483416
C         9.25007996572155    4.12363074665464    3.98652398632897
S        10.51255461889315    4.25858264860014    3.05631822285712
O         7.54381299459393    2.63574882202695    7.29161227295818
H         6.84606709697224    2.58303092644763    7.95194959918808
H         8.34599387899426    2.92242585725765    7.73589826015934
N         6.13160008522887    2.09238648144996    4.56384571734853
C         4.87409766160614    1.75310969796505    4.33613768059301
H         4.12042333293364    2.49255621224510    4.56717860541396
C         4.51092066748831    0.50023493005122    3.83968068777023
C         5.51382986358885   -0.43740437896092    3.58504253899573
H         5.26114047857081   -1.41614115015372    3.20456617265232
C         6.82329358214075   -0.07165668004705    3.83487045623585
H         7.63349720961366   -0.76017135355350    3.65616019398534
C         7.08513654010298    1.20191411579948    4.31932698683385
H         8.09352578886489    1.53109175792909    4.51680791329336
C         3.15110477987513    0.19464519426291    3.59079572313486
N         2.05575977432198   -0.05679674240537    3.37165810453675
N         5.07206684712993    3.90735195718158    6.53412096303545
C         4.12771690578710    3.79943442525845    7.23165820334999
S         2.86437657422145    3.66209456698265    8.16034099036348
O         5.83476641255817    5.28982618770215    3.92901872312254
H         6.53170207330214    5.34193439827332    3.26779040422503
H         5.03166551608675    5.00402604708057    3.48574848948446
N         7.24774985123515    5.83182418564886    6.65667615187921
C         8.50549781376285    6.17104274380055    6.88310912809648
H         9.25888695978449    5.43151362208614    6.65140232699867
C         8.86923200136840    7.42394543679667    7.37907721538825
C         7.86662390967220    8.36165895629291    7.63462639775871
H         8.11975272105685    9.34042595208708    8.01472920763993
C         6.55688466023068    7.99594872487696    7.38617880836542
H         5.74689752186333    8.68451014153916    7.56569384857840
C         6.29449648115816    6.72235482960287    6.90207443485596
H         5.28589369865977    6.39315676582495    6.70569958545082
C        10.22932329744208    7.72939332438152    7.62663594724649
N        11.32480610157440    7.98130395882351    7.84458738964958

