47
CSD_code = LIZPIV | q = 0 | S = 0 | Stoichiometry = C21H16N3O6Re | MND = 6
Re       -0.66159684907683    9.45455442702768    2.27109390741160
O        -2.05907945296025    6.86143273116457    1.33537875232235
O         0.02971716152474    8.34267640180266    5.06923129525002
O        -3.34857169133656   10.71270939613072    3.13165182676088
O        -0.67918420211137   10.37514182469917    0.33913140063279
O         0.55371716683237   11.77801786401437   -0.86139619121027
O         2.24307599306305   13.35959045334282    4.46303177284825
N         1.28276923849712    9.02157567854735    1.41006203328248
N         0.50577859201340   11.42218045902351    2.62343548263048
N         2.74012000422071   14.61362565097508    4.53198464055821
C         0.61372752021808   14.71132326020980    3.83807796612400
H        -0.33252348611623   15.08674274984177    3.51217898004644
C        -0.27023667503728    8.72602134290240    4.02755024693085
C        -2.36963000519373   10.19673339595357    2.83982779518093
C         2.00229731641274   16.88372711610658    4.13511681836601
C         1.46698119948192    8.08778925151170    0.48098857481569
H         0.72360574652619    7.30322710372038    0.43559762721003
C         2.17363572167780   10.01344291893573    1.50489172582269
C         3.27420773277418   10.10103905846903    0.66594614122877
H         3.96143421219440   10.92637252306722    0.76634029756557
C         1.79147968655520   15.44531524112216    4.16664018995857
C         1.92436612890969   11.02621560579222    2.58881098782677
H         2.58069908555116   11.89406509403390    2.44509164630284
H         2.17677302221883   10.56503717513347    3.55329669535241
C         0.96155596782238   13.41037338283580    4.04761251410609
C         3.45594879198768    9.13525788291718   -0.30829410711894
H         4.29072160097313    9.19468322513775   -0.98907347822083
C         0.20842410275637   12.13058215805275    3.88719001482493
H        -0.86213428319682   12.34912881315815    3.91580687158650
H         0.44879257800635   11.46372410766422    4.72188973269602
C         3.19925279866876   17.41404914479851    4.61702395900546
H         3.94527485729744   16.73693232193123    5.00201721169956
C         1.02815464775724   17.74408143379713    3.63331889532783
H         0.09905875138652   17.35071804671245    3.24981740700428
C        -1.55058224722827    7.80996244068549    1.72119177944910
C         0.02876005592361   11.40623393748697    0.17036052262876
C         0.20897494327477   12.27914962106957    1.46702239266120
H         0.98608308762997   13.03317599145832    1.29686693818692
H        -0.74805358142689   12.78478980341438    1.63085411086681
C         1.24888254127400   19.10876485280314    3.61727107638956
H         0.48926659850868   19.76934522834207    3.22611301260374
C         3.41265318204705   18.77804089483496    4.59841082012883
H         4.34088104958265   19.18214967589244    4.97418035126541
C         2.43823492620662   19.62882832213864    4.09976484381660
H         2.60569480054012   20.69551253731352    4.08663052970275
C         2.53623359961722    8.10289241993402   -0.39549840764336
H         2.63125806375086    7.32986703409638   -1.14043760418563

