41
CSD_code = LIZQER | q = 0 | S = 0 | Stoichiometry = C16H20FIP2Pt | MND = 4
Pt        1.07263950707022    2.70174890863898   -1.46252835275709
I         0.25630970629195    3.76632088598271   -3.65390547632552
P         1.79017121516678    1.78773712979223    0.46275506523646
P        -0.44179613148067    3.91565881158024   -0.16224018371178
C         3.51520350105003    2.11081365772104    0.97339549985388
H         3.72323268321336    1.68424637859368    1.95397122397236
H         3.68998409799388    3.18595161376911    0.99752495443706
H         4.17373866064318    1.66362057179262    0.22879504458676
C         1.66091269097128   -0.02405942434343    0.66245667698361
H         2.28971088263843   -0.48906231388690   -0.09681844445017
H         0.62858473980565   -0.33201850601257    0.50056866719909
H         1.98611653341449   -0.33855344691649    1.65319648271179
C        -0.26413139340267    5.73434334184772   -0.05939223103577
H        -0.46841442539207    6.14212418788528   -1.05010112058720
H         0.76043947372875    5.98359249605345    0.21591364316579
H        -0.95534252879185    6.16339755475198    0.66534238129812
C        -2.24713678215823    3.74387037755607   -0.40506655953818
H        -2.81019478328252    4.34323745317491    0.30927955588874
H        -2.52775991433564    2.69519904548527   -0.31110004456455
H        -2.47312432750384    4.07555401494476   -1.41936484322012
C         0.79877781402404    2.45129008517198    1.84943333660103
C         1.01615999615660    2.03779175655544    3.15880401125295
H         1.78740538918298    1.31219639409541    3.37668614027341
C         0.24947893876539    2.54887349711339    4.18941961828327
H         0.42278173663667    2.22184839836625    5.20384550941455
C        -0.74147629039871    3.48003773054600    3.91984984553718
H        -1.34145453221944    3.87833231929996    4.72452431744075
C        -0.96161392022272    3.89957505037248    2.62099757974933
H        -1.73491770552809    4.62715560778656    2.41906672659941
C        -0.19777175310217    3.39204521963003    1.57715317575457
C         2.43333589399935    1.58844305527454   -2.45044272690723
C         3.72338041737407    2.06010950969036   -2.67263650115783
H         4.00063809430580    3.05607594381270   -2.34034602895664
C         4.66549672751039    1.28633006728921   -3.33007139313737
H         5.66676520798201    1.64732606736310   -3.50958987187662
C         4.29945163326224    0.02722121087866   -3.76517460394521
C         3.02531323667588   -0.47094368254215   -3.57255094505018
H         2.77087711728757   -1.45441767042463   -3.93748928070938
C         2.09867141312274    0.31910783160620   -2.91272588276907
H         1.09124015250033   -0.06079694706261   -2.76910533050758
F         5.22121702704589   -0.74632418323220   -4.39332963503155

