29
CSD_code = LIZRUJ | q = 0 | S = 0 | Stoichiometry = C9H12AuIN4O2 | MND = 2
C         2.50820032736299    4.92702915638187    4.25084843344335
C         2.12251256509018    5.97158201475855    2.33223229533235
C         2.86004440352519    6.82310491522455    3.12845011771408
C         1.68020680404625    6.31599373641234    1.00827147250818
C         2.84147795112151    8.47914411101204    1.42553726771781
C         4.00390747710228    9.00200137598338    3.49184410400858
H         3.47522701864921    9.27464878100721    4.40370559644905
H         4.13197639812434    9.89317931462811    2.87785724484915
H         4.98447036439215    8.59272887484383    3.72914249002477
C         1.73247084013542    8.09718274845759   -0.65638241739562
H         1.17097942898999    7.31203214924405   -1.15661694037660
H         2.62909973308413    8.34565162496390   -1.22249818067557
H         1.12400915069171    8.99488550054961   -0.55478037762702
C         1.20261948862759    3.67800274511516    2.56865959527466
H         1.69774961262852    3.27008165516367    1.68688152798275
H         0.19278894038552    3.97276896026208    2.28326242182161
H         1.16367995666554    2.92375401604419    3.35307831256391
C         3.80801374039080    6.61895052314351    5.46593916112236
H         3.77266210930607    5.81689339617006    6.20375663389414
H         3.34403930991801    7.50609660709319    5.89508254766260
H         4.85062160119712    6.82580695372979    5.22779695604815
Au        2.53211197131559    3.51140378118431    5.72853886387388
N         3.22796994789710    8.06378168924134    2.70346451806337
N         2.10353339727723    7.60109526174695    0.66059312546762
N         3.08770868986845    6.16389365133098    4.30401467403914
N         1.92642665482837    4.81672508533816    3.05690148010996
O         1.02786296430300    5.62250774070351    0.25960082320559
O         3.14723264321541    9.57213157587354    1.01186292468834
I         2.57879650986243    1.77144205439310    7.58605532821078

