75
CSD_code = LIZSAQ | q = 1 | S = 0 | Stoichiometry = C30H32AuN8O4(1+) | MND = 2
C         8.52717530406529    1.76642486872802    6.99666760670653
C        10.24645934608218    3.17097635622366    7.20545668827834
C         9.18945006855573    3.65564567876666    7.94849774978642
C         9.25570355877304    4.88443724326010    8.70297857621393
C        11.58657810637460    5.02458042725747    7.85356501078040
C        10.72828816479648    6.73366543172774    9.28872117760373
H        10.99375587017323    7.51648948402897    8.57990864611047
H        11.54707533288416    6.61301555393959    9.99647823075224
H         9.80971417159814    6.98869214182234    9.81078612240557
C        12.59475369287459    3.35931204550262    6.40026408333613
H        12.97270593095397    2.42504992882838    6.81286446407986
H        13.36281367070922    4.12465461884944    6.51176778892416
H        12.36154994276070    3.24492529969445    5.34396299965567
C        10.54496971653392    1.13176408928926    5.74266115322358
H        11.47365215304920    0.79876550859896    6.20070445527416
H        10.75935943200576    1.62669413437096    4.79568233499728
H         9.92347596590579    0.25855191681388    5.54954779212941
C         6.85414465046518    2.89944105756897    8.41893610121264
H         6.85967776601388    3.84215332749083    8.97561543072645
H         6.70977565608050    2.07733966343564    9.12575217552381
C         5.74401851284202    2.90704138845692    7.39995357157580
C         5.81305183242082    3.75311519312503    6.29939131380264
H         6.66800253645900    4.40188250820911    6.17494172509982
C         4.78630823238578    3.78203713155089    5.37326322808043
H         4.84592585424575    4.44730815294434    4.52573784948563
C         3.67431581103069    2.97382682280051    5.54396832787012
H         2.86676571094356    3.01039448904925    4.82882367762478
C         3.59500402704691    2.13556853417984    6.64314099949929
H         2.72298381257127    1.51645352715516    6.79176836331803
C         4.62777906607731    2.09736880023045    7.56404601579138
H         4.55671820426510    1.45059135954926    8.42616339412631
C         6.10621268811634   -1.31315011210310    5.93527183139899
C         4.60150881233118   -2.61696414023763    4.93104139594266
C         5.27735011488789   -3.36805675522491    5.87094046659444
C         5.01228380681480   -4.76866774371964    6.09808577671203
C         3.30089657493747   -4.50942572554809    4.31549733866932
C         2.85222951709110   -2.41417286466309    3.17103885122026
H         2.23940738604383   -1.65070038937572    3.64825626773539
H         2.19403074453751   -3.13547349142609    2.68666212250776
H         3.50213446765351   -1.96986182980740    2.42051165101515
C         3.62600518817941   -6.63250084090659    5.36660149263687
H         2.57607863668814   -6.70862706172264    5.64535869916183
H         4.25441542417070   -7.08957248995647    6.12658513836366
H         3.76775636441269   -7.12680807920171    4.40676870451767
C         4.76844345834565   -0.20431576577551    4.19566181819941
H         5.03756123355979   -0.35279944369757    3.14999871167715
H         5.31861471909820    0.65292496728737    4.58109199555535
H         3.70408392272529    0.00578578162831    4.27352279655236
C         7.09992998009418   -2.92527566123867    7.52254243108507
H         6.93069559142278   -3.98995718994747    7.71322247944779
H         6.85798645398844   -2.36448484450291    8.42979271726356
C         8.53853772343142   -2.69287094622318    7.13899467254564
C         9.40456016269394   -2.03965762773264    8.00607498442876
H         9.04214247938981   -1.68595379272826    8.96007542487865
C        10.73473934045301   -1.86471678037742    7.66537652587076
H        11.40341610591048   -1.37374066910482    8.35655819906998
C        11.20800096447977   -2.33003041370430    6.45024810108869
H        12.24678865699516   -2.20246020643298    6.18638678688102
C        10.34825189590942   -2.97887776729924    5.57922545497932
H        10.71609875362079   -3.35509696928002    4.63710296356717
C         9.02184532714389   -3.16435206870535    5.92416016918235
H         8.36007300896537   -3.69183806899907    5.25248655549293
N         9.81574807804578    2.00614560796761    6.62654933265535
N         8.15483607456792    2.76413455792298    7.79790799281721
N        11.43640286071019    3.82303727816588    7.14184318562429
N        10.50346927253168    5.48176076840318    8.57795676335691
N         5.12856038973658   -1.35335147348534    4.98798537841196
N         6.18872812654722   -2.53161146264597    6.46887911442106
N         3.62219927389650   -3.15140092070084    4.15611005544641
N         4.00681803677579   -5.23026830023232    5.25838091469721
O         8.36065573394650    5.36329575316800    9.36467712625356
O        12.62676173997867    5.62967520135603    7.82423650110771
O         5.57640517619508   -5.47940214266059    6.90118384144591
O         2.44049996356952   -5.01951332010921    3.64581495307458
Au        7.31498366867549    0.23273075963010    6.45191526236717

