84
CSD_code = LIZTOF | q = 1 | S = 0 | Stoichiometry = C34H46N3Ni(1+) | MND = 7
Ni        1.72221257933894   19.12984516282571   13.94538857766832
N         2.42344382694650   21.81775494564723   14.78592156406904
N         4.02842015500118   20.43398190539525   15.26253048002976
N         0.92025906082022   20.01286171571657   12.58211344092275
C         2.00945449990067   17.84467735090062   15.44934016100480
H         2.49186588090341   17.99772159468928   16.40104220483978
C         0.60620527488221   17.86138111555364   15.24307250533765
H        -0.14479953349106   18.10773221264718   15.97234790797371
C         0.39726499817086   17.46282907523490   13.92328443206382
H        -0.56201707631783   17.32893290747127   13.44553147006449
C         1.65197817171092   16.98498101294046   13.37136504901058
H         1.75057996908403   16.47398252901480   12.42802147564958
C         2.63319605355239   17.18633787586370   14.31452162856107
H         3.65848480848012   16.86154853081063   14.27261480156040
C         2.83673527000904   20.55406363511232   14.66874506978403
C         4.54108674761619   21.71923374297165   15.74420189485940
H         5.39088712212743   22.02810172853609   15.12500445189188
H         4.87887558780019   21.63721835202191   16.77609286570816
C         3.33047167117042   22.63427429740590   15.59295588597655
H         2.85676488877486   22.85577151307183   16.55480753942601
H         3.55368015478661   23.57838623878111   15.09592479657917
C         1.28465995268177   22.44013579689699   14.19683592571998
C         1.48180270287955   23.22477491110509   13.05372080108664
C         0.39204083246110   23.90199707366307   12.52317470980507
H         0.52193446948782   24.51893515987854   11.64796308899503
C        -0.85420126529316   23.81218998926780   13.11277661194486
H        -1.68688738210162   24.36336414098343   12.70212016767447
C        -1.03492091019723   23.02227253090134   14.23115277176528
H        -2.01157471527800   22.96601617327088   14.68298691617406
C         0.02379620682223   22.31565117913253   14.78830599243289
C        -0.19314408749064   21.47061292412968   16.02096680355747
H         0.64816547489186   20.76979284426496   16.11555703394640
C        -0.23795459518695   22.36563662311992   17.26295426002382
H         0.67134500123796   22.95483489457044   17.35773954978482
H        -0.35352662280472   21.76063473972259   18.15874474249384
H        -1.07851556366004   23.05245159423977   17.20137618064211
C        -1.47597470669437   20.64313123080510   15.92310578406563
H        -2.36031825200954   21.27222177370318   15.96675828532689
H        -1.53009949999780   19.94814938194382   16.75780388628900
H        -1.49399318072838   20.07962852558015   14.99173361663668
C         2.83103519391126   23.35408038338011   12.38400378681248
H         3.56431856493079   22.75729250202938   12.93159267029453
C         3.29931121996624   24.81202996121029   12.38050755437450
H         2.66661585461246   25.42146085787258   11.74178791788447
H         4.31854090785769   24.87600217917575   12.00751190390888
H         3.27067100420896   25.23480247235583   13.38274758209251
C         2.78598638999888   22.80223226676150   10.95705305677999
H         2.51952360256882   21.74761596680660   10.97143152729272
H         3.76362338808308   22.90618574239968   10.49302930457267
H         2.06494260550661   23.34245978457325   10.34987296980083
C         4.93871599499435   19.34242861636830   15.12603645462253
C         5.48775665905168   19.07630929849609   13.86506728888418
C         6.35385477759392   17.99737231284547   13.73875353926080
H         6.77137908439447   17.75984907761148   12.77345145538496
C         6.69786177776127   17.22898793412096   14.83324482910005
H         7.37192655046347   16.39446860330391   14.71688428674186
C         6.19485808692910   17.54147702503308   16.08116651733300
H         6.49311953436609   16.95353375496240   16.93358991927630
C         5.31023621781176   18.59828198160833   16.25252755870344
C         4.81933603235012   18.93511371943956   17.64269562623116
H         3.96327398447947   19.61410806384523   17.56055020481708
C         5.94076648771328   19.63731174078535   18.41914082328420
H         6.77119000523001   18.95337438977129   18.57419769741930
H         5.57795946710738   19.96056507457554   19.39183295991583
H         6.32335236287662   20.50334597628569   17.88322410311947
C         4.37178547475757   17.69745270990391   18.42847395120575
H         3.74093070332956   17.04409737474695   17.82996289598267
H         3.81336764987784   18.00454833444601   19.30979182688496
H         5.22699683680839   17.11878620702973   18.76547302014654
C         5.18651458544119   19.92545606259986   12.65166003928799
H         4.62402627081312   20.81193713647805   12.95836802067571
C         6.47392570749452   20.40376908867576   11.97611415323481
H         7.13716753171728   20.87310289933000   12.69933324793089
H         6.23631091259013   21.13049708032210   11.20286430319615
H         7.00609107020863   19.58039904117679   11.50956397478875
C         4.30865372553288   19.15011248387506   11.66760463223433
H         4.77741256433650   18.21214960574385   11.38321145622087
H         4.13601439750336   19.73918847578341   10.77036436508219
H         3.33832484703301   18.92966272643406   12.13703451267376
C         0.23458505230475   20.40500176328931   11.74568726523920
C        -0.59914394426912   20.91146265756563   10.71217182426853
H         0.01088654766880   21.21903745695971    9.86267402898842
H        -1.15379368202611   21.77174395555333   11.08798262236291
H        -1.29919597617470   20.14005632468930   10.38975699035502

