104
CSD_code = LIZYUP | q = 1 | S = 0 | Stoichiometry = C41H58N3OPt(1+) | MND = 4
Pt        4.97903103255274    7.74182044014502   17.85279317262633
O         5.53171090844996    6.30851652295347   20.43041737378282
N         5.23514778539236    8.02526449650699   15.89670547181482
N         5.01552626332482    5.75131935234308   17.07442172741839
N         4.99629158446642    7.45059775356735   19.84199184955090
C         5.28567188236426    6.97869233740902   15.13137525609086
C         4.96069056117100    5.71162104620280   15.78696727635112
C         5.69241573345324    6.98623333519417   13.69695551300758
H         4.81355313778417    6.93956699670314   13.05348289953917
H         6.30804616203340    6.11728407948376   13.47515315940937
H         6.24464992529130    7.89134622518660   13.45432096334892
C         4.59278347500556    4.51132856724870   14.98219502168362
H         4.09212623754189    3.77418965329473   15.60645725957499
H         5.48608112381039    4.04996234669360   14.56061625649484
H         3.94134699173679    4.78968088668721   14.15692496691001
C         5.63546246595885    9.30124043228902   15.46218057299320
C         5.06741178564024    9.94089615471693   14.37277676506437
H         4.27615648986708    9.44968336216376   13.82904542009159
C         5.46964007378827   11.23182966006479   14.03479882701492
C         6.44284642207481   11.83785263813251   14.81403990443974
H         6.75486110592160   12.83847629688690   14.57357229588356
C         7.02524669676285   11.21295018263378   15.91929443206433
C         6.61000022628060    9.93372633293811   16.23477954335483
H         7.01437200824518    9.38968997153009   17.08189581551260
C         4.80758034172697   11.92266463251064   12.85354635602696
C         4.96713675165458   11.04866871803665   11.60128980687289
H         4.53890084816743   11.55526349206812   10.74034237184092
H         4.46380385260146   10.09183290989078   11.70975572923727
H         6.02054141417140   10.86455161414948   11.40071988204956
C         5.41563929610405   13.29506699520845   12.55560449302538
H         5.27383152236675   13.97965642406589   13.38837540473842
H         4.92313799109361   13.72534838937312   11.68700865972941
H         6.47673593565552   13.21382243109769   12.33163947467339
C         3.31771370317555   12.11282838693835   13.17339754965631
H         3.19878404724228   12.72189637530102   14.06703995069988
H         2.81881444287545   11.16160842801408   13.33943634306089
H         2.82234748872977   12.61589405112054   12.34701225041267
C         8.04268873933198   11.96763384316252   16.75667412434834
C         9.21791441925900   12.40180422849130   15.87107920801997
H         9.69272805363559   11.53335916838638   15.41942370995454
H         9.95901361620090   12.92549052528676   16.46945247760358
H         8.89661124483282   13.06794512819994   15.07592254551478
C         8.59234309451121   11.12294911045770   17.90898738948140
H         7.79847708834405   10.82976679818144   18.59289216719192
H         9.31700811230134   11.70871705210324   18.46906672673447
H         9.09796325488284   10.23416201204420   17.53822459152569
C         7.34808120740332   13.19954691972133   17.35471671635338
H         6.99669790536958   13.87417716026223   16.57952562146261
H         8.04213624198092   13.74507537659771   17.98891189250808
H         6.49468034555291   12.89370808097624   17.95727863172189
C         4.64464317620127    4.68763000089110   17.90555912001602
C         5.33996821407308    3.49120067241906   17.94326799510857
H         6.18475375166051    3.35746085001254   17.28506762666323
C         4.97859370821431    2.50675740769722   18.85896346651105
C         3.91175805655834    2.76271676916808   19.70696468738223
H         3.62786210845650    2.01710730765509   20.42797098381231
C         3.19164581616624    3.95777285225034   19.67642057939293
C         3.57280055862255    4.92289200310185   18.76415013151739
H         3.05510340978434    5.87157473508470   18.67867373174553
C         5.77720480661860    1.21357137521824   18.90206651999912
C         5.75828011710684    0.56183449951109   17.51204203949607
H         6.29122396454951   -0.38512204021053   17.53972559289450
H         6.23366812680516    1.19149347847820   16.76475230716194
H         4.73403086933593    0.36922360011486   17.19967454139060
C         5.21612404720185    0.20517471992586   19.90718324682291
H         5.81219420004156   -0.70372575601835   19.87559141154998
H         4.18973216866275   -0.06027690564483   19.66489452698217
H         5.25824480085250    0.59339459872559   20.92210941521920
C         7.22215520751954    1.54256236377695   19.30548153688909
H         7.24198198293231    2.01188163139169   20.28728405562357
H         7.69415275956806    2.21433469350660   18.59278552042929
H         7.81135775646658    0.63027455450915   19.35130145452374
C         2.05981811639503    4.17730170740019   20.66534022536159
C         1.01525388958625    3.06447787673675   20.51094994425344
H         0.61001082188530    3.06299896425869   19.50120011593092
H         0.19701140831953    3.22468132145700   21.20862627511266
H         1.43992442403976    2.08499981965270   20.71008387827965
C         2.65535216926163    4.15054856907241   22.08043718470150
H         3.07162805971257    3.17550546030015   22.31628480457145
H         1.88565375967720    4.37651087906093   22.81427702594205
H         3.44896925874857    4.89004500770374   22.16567336831255
C         1.35800475069900    5.52329489173667   20.46321171496341
H         2.04709825931573    6.35346349065099   20.60320019804927
H         0.55806204301902    5.62549078028449   21.19270416157138
H         0.91464015500669    5.59090219977194   19.47225888882944
C         4.26063030054390    9.52144363775613   18.50969620359171
C         3.85339852945958   10.62965581705170   17.78319714792705
H         4.02913672755708   10.69239057696053   16.72005352361755
C         3.22302363686409   11.70112264639803   18.40617231444469
H         2.93252882334071   12.55927013445514   17.81879847954104
C         2.95840768223149   11.67512111559291   19.76486631982977
H         2.46217366142373   12.50850251017775   20.23729282387547
C         3.32334455238096   10.57250845750000   20.51375341603163
H         3.09975948670923   10.53929931430480   21.56883209792159
C         3.96955066534123    9.50368401437082   19.89499559142057
C         4.43265601999767    8.32612932090933   20.60913802055020
C         4.30249190620458    8.16639628230288   22.08037658113124
H         4.82396859134960    7.27447040195130   22.41792302043841
H         3.25015537686874    8.08124131151689   22.34943277360269
H         4.70622737169107    9.04051364068391   22.58771411314785
C         6.83128133260135    6.03049979367474   19.94974350804902
H         6.91358029008813    6.29081243834172   18.88223873757981
H         6.98414715655827    4.96136024967664   20.07954492368890
H         7.58015012734995    6.59221663385924   20.51686630812135

