116
CSD_code = LOBJEU | q = 0 | S = 0 | Stoichiometry = C37H69AsClN5NiSi2 | MND = 4
As       16.63193872945930    2.20120226810371    5.60026353671987
Ni       18.15659249505919    3.87088565606261    5.29743879441715
Cl       19.97621880843845    5.10153934165727    5.11126698782722
Si       12.86838459432516    1.33148996007573    6.17269109283284
Si       14.81361242198328    3.20666880440625    4.66074944405267
N        17.64812364735628    5.06895631275001    7.84763049426848
N        17.52992419445039    4.57061929091798    2.51983619323861
N        13.37113833192291    2.22178280792009    4.76757652908204
N        19.05618142484161    3.43682106066189    8.01616097486925
N        18.55384578659556    2.67262731544447    2.66697028090002
C        19.89835098517797    2.34464332251474    7.56225124406422
H        19.58659973631707    2.18825028949000    6.51383361764544
C        18.96210907110043    4.01551763643862    9.26529744370256
C        12.61600837580749    2.15955348118565    3.57435315266469
C        18.07882211758020    5.04785592106904    9.15808765909770
C        21.37111647947377    2.74271344030305    7.53501934246398
H        21.48235686121326    3.65564814552855    6.95350541717618
H        21.94927075841163    1.95608871047983    7.05705059437567
H        21.77206940085290    2.90717188651552    8.53136892110839
C        18.04834254974351    3.68790385904816    3.39855559627855
C        18.25515384140412    4.08794136314272    7.15105749496871
C        12.93656825034155    1.20629598574284    2.60154538232345
C        15.72529071181413    6.29393226144858    2.37512919127252
H        15.83569342772871    6.69780443303715    1.37305288470167
H        15.29075261705263    7.06928160899872    3.00160286027289
H        15.03806086795361    5.45227776164462    2.34852773216898
C        17.69330967545145    4.10364996393815    1.23289179033836
C        16.75680159456611    5.99683215461208    7.17539584971075
H        16.55411788498041    5.51137564690077    6.20264242449612
C        17.61688185061676    5.98372276836938   10.21871568435175
H        18.29006519589483    5.93103454586236   11.07060751024236
H        16.61599322903134    5.72287646874689   10.56382851493197
H        17.60495176480719    7.01042276430091    9.86083530032116
C        11.57692743717275    3.06839941779996    3.34664169627216
C        18.15302218123816    6.92625818966038    2.72551498827872
H        19.06094516913037    6.63690318785325    3.25154981227215
H        17.82137783280946    7.88781042258206    3.10873295833240
H        18.37893482483008    7.03188171911062    1.66722105058656
C        19.36866983511027    1.64845398315422    3.29663114340891
H        19.25320464574274    1.83867290789608    4.37820206159353
C        19.62797045536555    1.05356356098599    8.32723774000815
H        20.00845320571565    1.09888219188321    9.34325104995678
H        20.11459924505234    0.22640976656950    7.81706908751183
H        18.55568184607535    0.85877069690791    8.35142537856859
C        20.84696458310288    1.85269083939101    2.97185031379237
H        21.06341107691686    1.69492296370044    1.91870169849357
H        21.44592917173743    1.15740928726738    3.55435434052804
H        21.13598892778455    2.86633341345836    3.24188819299044
C        11.24464042765806    4.14421416357625    4.35171950275272
H        11.82514148346993    3.94390976892188    5.25495000001421
C        17.06887077408587    5.87563755769260    2.96407806100106
H        16.94990105218917    5.76134281272325    4.05385242515406
C        18.33646970473247    2.90532885983743    1.32495545546905
C        10.86129975364952    2.99567692543439    2.16001922975385
H        10.06036085896145    3.69621246987663    1.97593794132540
C        15.42233343710114    6.17112574948734    7.89254812206328
H        15.04164129827151    5.20629732405735    8.22226509471051
H        14.70115369326728    6.60243958856292    7.20232125062146
H        15.50721219867896    6.83295921423131    8.74943549657043
C        19.66396591298904    3.53355620820856   10.48603142801195
H        19.66614677175064    4.31645014156096   11.24053199831775
H        20.69516541842261    3.26536922428405   10.27449870459415
H        19.15702829204310    2.66349067426381   10.90568794118424
C        17.46515531565292    7.32042353834217    6.89442129958319
H        17.70489076206159    7.84920380823525    7.81368734952940
H        16.82943453253507    7.95685940476731    6.28376849670336
H        18.38965050164467    7.12596154184210    6.35300053061814
C        11.09080931345923    0.70201542607292    5.91307338897072
H        10.35821359504529    1.43750833480596    6.22521474488715
H        10.91347757155872   -0.20012244097528    6.48872034465110
H        10.90527014791909    0.47487579711679    4.86873486129791
C        18.68147922910386    1.95978086823548    0.22813208849042
H        17.96686694368162    1.13639524039603    0.19419769867216
H        19.67984466079815    1.54848211923366    0.34939243519389
H        18.64417006983227    2.47639771187378   -0.72755599185325
C        12.19274333780200    1.15700289652723    1.43093564410297
H        12.42677877470295    0.41635602280808    0.68004799845384
C        12.95646097108860    2.48825485665906    7.68814094754512
H        13.98037016978816    2.81321414814479    7.84857324127363
H        12.62975597910452    1.97626658812503    8.58742397070088
H        12.33998515287936    3.37414225936476    7.57175113521859
C        11.65435912774992    5.51425607147612    3.80495909066406
H        12.71401106293812    5.52012329959990    3.56258175847383
H        11.45952886109171    6.28993421668742    4.54328284220901
H        11.09467932584893    5.74987677326473    2.90223099709195
C        17.20131796899825    4.79442800547736    0.01043154231293
H        17.60206160301811    4.30462458222543   -0.87321862761423
H        17.51304697968408    5.83632197255609   -0.00988981146036
H        16.11351881697163    4.75507693729840   -0.04529921542341
C        18.86948095419798    0.23631548317598    3.01816269959890
H        17.81121207874151    0.17040380294856    3.27144345837414
H        19.41626621824422   -0.46408030714533    3.64449173064289
H        19.01206084140136   -0.04932608369918    1.98059268331078
C         9.76074858621825    4.14467379067672    4.72314527983889
H         9.14590692388592    4.46456030996076    3.88534883543055
H         9.58289561754062    4.82757170102653    5.55180555182084
H         9.44118971378075    3.14904011918885    5.01966577894149
C        14.07151529315173    0.23031162987873    2.80111450225898
H        14.53958251597124    0.43790850253382    3.77004327164280
C        11.15688063977556    2.04183778367012    1.20646268550846
H        10.58642173943337    1.99243627189624    0.29017946948434
C        13.98177078482149   -0.18136618323811    6.53184761511030
H        13.82056282388004   -0.98680062161144    5.82274694555299
H        13.78022623787272   -0.57527900076158    7.52343099568857
H        15.03628066173099    0.09456135699467    6.49024215320754
C        15.14012216362825    0.40118787680435    1.71890271959358
H        14.71918108803997    0.26070506432178    0.72578363507031
H        15.93217084999096   -0.33127389416015    1.86155881786746
H        15.57164548691281    1.39880301053318    1.77216509026854
C        13.54641942333092   -1.20689671883063    2.81901145109038
H        12.75834253430136   -1.31006486782047    3.56160678308658
H        14.34974549013391   -1.89861501981518    3.06476760936187
H        13.13941895805313   -1.48481316633140    1.84936040631589
H        14.97834037631160    3.36179715591711    3.19826960246934
H        14.42192724911560    4.56391536285658    5.12455750382544
H        16.12754477775646    2.42016619249266    7.01840986336932

