116
CSD_code = LOBJAQ | q = 0 | S = 0 | Stoichiometry = C37H69ClN5NiPSi2 | MND = 4
Ni        9.20223299777635    1.11277979797226    9.58675889700713
Cl        7.37458801441422   -0.04471324576890    9.77900997896302
P        10.75623356314580    2.61716863458113    9.31576738825365
Si       12.49100549375655    1.81773880717360   10.39369127586069
Si       14.33801536887126    3.72211264063827    8.75551617366259
N         9.74052216744637   -0.15154177558661    7.05242447236512
N        13.89663158485644    2.82225718487199   10.18428529993387
N         8.34537741928348    1.48481573964372    6.83885127776378
N         9.74208716808578    0.41267628046570   12.38214270721143
N         8.82828643910376    2.36099424811849   12.19790726627778
C         9.28008153343214    1.30958845519190   11.48851912822044
C         9.12242502338214    0.83791874715432    7.72533160238646
C         9.34085880034744   -0.13921242337068    5.73257322474980
C         8.46394617410622    0.89630521242703    5.59746755463957
C        14.72115506436160    2.87479664277369   11.33242067488903
C        10.17306308367955   -0.90830282585441   11.95616702082752
H        10.28424708500751   -0.81080866641714   10.86303314849626
C         9.59873975490457    0.90802732713666   13.66004905091656
C        15.75839675772684    1.95174046728519   11.49929092839009
C         7.50593162347523    2.59194322495599    7.26606344033092
H         7.82097802689020    2.77208474969192    8.30995810604932
C        10.61838214280164   -1.07211257951715    7.75379312832538
H        10.80652360288085   -0.56850384622153    8.72065805891760
C         9.82043642118161   -1.08825409691938    4.69158236089026
H         9.81206438988569   -2.11192799707022    5.05805205531942
H        10.83267161344917   -0.84076175463072    4.37112239930254
H         9.17068693365964   -1.03525511548742    3.82182349799148
C         9.02443845059052    2.13934335177640   13.54390936282672
C         8.12720159016662    3.45042616192634   11.53996672033358
H         8.26790521230693    3.24798005400509   10.46440735104328
C         6.62691255829946    3.38135926145725   11.81816977073483
H         6.25630845543337    2.39345633100577   11.55263723878242
H         6.11072529808966    4.11887327139661   11.20893782476956
H         6.39315860324449    3.57457359992763   12.86185544523009
C        11.51690827088547   -1.33022035699070   12.54230197035656
H        12.21161218335087   -0.49411496283050   12.54172946947311
H        11.93703452025117   -2.12546807234537   11.93129928579971
H        11.41082850779564   -1.70775016156541   13.55507411088163
C         9.07550034344848   -1.93891254722137   12.21848847661196
H         8.85876241793823   -2.03129323083144   13.27967763519644
H         9.38876209022118   -2.90913784353007   11.84186414190446
H         8.16737911785471   -1.64064476669249   11.69819863742775
C        16.01304470037833    0.86387519039835   10.48433029021770
H        15.32318965302483    1.01719409504563    9.65203437738234
C         6.03238783431862    2.19546864835702    7.29601263832915
H         5.64112685762016    1.99810120876945    6.30158105845630
H         5.45124409265321    2.99874956477160    7.74131734480278
H         5.91368044824105    1.30286213278159    7.90674016518293
C        11.96353104523268   -1.26562587901550    7.06175148091703
H        11.89007011002461   -1.94286152828539    6.21597269440854
H        12.67094366918565   -1.68652398073411    7.77207995998640
H        12.35441181213642   -0.30937891297868    6.72062968964195
C        14.48017006518373    3.84260854783819   12.31418621760548
C         7.78126998181845    1.36459233281197    4.36068726227464
H         7.79482186645608    0.57544991172030    3.61303625375583
H         8.29017489358313    2.23358292113008    3.94209020934634
H         6.74563953705874    1.62928557889965    4.55416230438506
C        10.04074089421531    0.20972748516238   14.89754501050657
H        11.12734192892121    0.22262085805170   14.98244889248081
H         9.70325296946784   -0.82377739824922   14.91289042448784
H         9.62911870917385    0.71274340537781   15.76872946703829
C         7.77279497777776    3.86259177297481    6.46685468668673
H         8.84380524541476    4.04373589450656    6.40606224431590
H         7.31199921816982    4.70644111885837    6.97374640287232
H         7.36120689256375    3.80311445192591    5.46359772180550
C        16.55810134882930    2.02948756800431   12.63105823175789
H        17.36259152104282    1.32161242314443   12.76568921175822
C        14.34527912757749    2.52685537679860    7.26601952527832
H        15.12899189503818    1.77881903660170    7.34036358269272
H        14.49411552629749    3.06632344530954    6.33593674660826
H        13.39559238121441    2.00529065530312    7.19594262027031
C         8.70940408404998    3.11071614003153   14.62718348045525
H         8.68800247633535    2.59777890484937   15.58550231828022
H         7.74205881986217    3.58127816243595   14.47529675448746
H         9.47146431346696    3.88912363560704   14.67908167147395
C         9.89872431585713   -2.38841648057992    8.04148960976121
H         8.96624080068920   -2.18283355559883    8.56442640878321
H        10.52155305169615   -3.01931591738174    8.67058087380254
H         9.67279564796151   -2.92802936916542    7.12503344119447
C        15.30537225270421    3.89493586687011   13.42853540917932
H        15.13651215313033    4.64888590324864   14.18354469178799
C        16.34369200968725    2.99899262598942   13.59010038117066
H        16.97929238892840    3.05345846799619   14.46213402544390
C        16.07356943911360    4.46577222799272    9.00060035754455
H        16.29867379942708    4.60770197732297   10.05219043758426
H        16.15106477845915    5.42977573003802    8.50874604799618
H        16.84437096496445    3.82743851083675    8.58312342001908
C        15.73384002000090   -0.51029506228864   11.09861156014651
H        16.41831356687150   -0.71236321030777   11.91941668259855
H        15.85706180308759   -1.29045594227299   10.34967472430611
H        14.71740613838411   -0.55208167632421   11.48255688594958
C         8.74311289482836    4.81144254161589   11.83748572195664
H         8.56886462564385    5.12458791556771   12.86245942960748
H         8.30536150936769    5.55312635667010   11.17413762186222
H         9.81323556525837    4.76996554731156   11.64728562452440
C        17.44153548952845    0.92152005753767    9.94014381862235
H        17.65721292182010    1.91064511713716    9.54502228971308
H        17.56797846664404    0.19306300714128    9.14124161199594
H        18.16711264195865    0.69953751303128   10.71897733127745
C        13.34982902737990    4.83473738780660   12.17827906245856
H        12.79414628447901    4.59531991632918   11.26774228450842
C        13.11225125244697    5.14100620646289    8.40164386509581
H        12.08669772811756    4.79650551903036    8.50263178245064
H        13.23852889515595    5.51691809116569    7.39027125814585
H        13.24796690535556    5.97738134486873    9.08059921577005
C        13.89884823322705    6.25723139428672   12.04833134860429
H        14.41781311170483    6.55710401192528   12.95627104883738
H        13.08759532404949    6.96046449564659   11.86927183970153
H        14.60014513025810    6.31598085190826   11.21907152824686
C        12.38270568977805    4.73612422749451   13.36028366396562
H        11.95612352433854    3.73660751094421   13.41414221552737
H        11.57435723866965    5.45492014820874   13.23968041620195
H        12.88680281773341    4.94609747422729   14.30102205332862
H        11.29125302368625    2.39602390138741    8.04935539851914
H        12.22398151597245    1.84236270830230   11.84305068406657
H        12.88168228768889    0.42226996678884   10.07729542849769

