83
CSD_code = LOBKET | q = 0 | S = 0 | Stoichiometry = C34H46NiO2 | MND = 6
Ni        3.54195795740185    9.03951434478801   11.01656302451845
O         2.30485964677325    7.48087502183681   11.38431605771132
C         2.81063232623850    6.37141303874402   11.08869483556810
C         1.96006801022621    5.19741180682140   10.76199952890333
C         1.80545180968971    4.14215345850369   11.66157271292662
C         0.98841836967500    3.07680233806391   11.30606231599985
H         0.85152484924187    2.25392092568793   11.99083347127630
C         0.33540901479001    3.06239750706355   10.08903370581389
H        -0.29767587208419    2.22741377054226    9.82579864620089
C         0.47820457567274    4.12243486572466    9.21286394656909
H        -0.05305051754495    4.10611281042717    8.27424278430668
C         1.28911172077138    5.20109549990820    9.53166570519380
C         1.40467031793141    6.38612974659904    8.59882358138917
H         2.31706375144712    6.94265028245171    8.84342278166432
C         0.21128458859510    7.31544860362718    8.84082439253834
H        -0.72323869508537    6.79115903447344    8.65095323290207
H         0.26527544360784    8.18233650512532    8.18509903090064
H         0.21497947326943    7.65497100166831    9.87373269851696
C         1.48946262741530    5.98579086842015    7.12608874978662
H         2.25700303191702    5.22980900900630    6.97650249982993
H         1.74241832625746    6.85551727025024    6.52295692259561
H         0.54106591849901    5.59512691519464    6.76595006353367
C         2.43986074866730    4.19425880176707   13.03029912380502
H         3.14812855326493    5.02676426324322   13.04847278773266
C         3.20237426191510    2.91058647823199   13.35720733944397
H         2.52405004190503    2.06933619886236   13.47414054178379
H         3.75392586639938    3.02948796760324   14.28730949531072
H         3.91243533343926    2.67971629547140   12.56688461044095
C         1.36120999613789    4.47412965760552   14.08099888927920
H         0.85968210733917    5.41411184079033   13.86181050681431
H         1.80741341217126    4.54170991150370   15.07105001707084
H         0.61696314915712    3.68102485348804   14.08988272072321
C         5.00232817756000   10.51344967592950   11.54380854688237
H         5.93212572198338    9.95248009459343   11.60980106835341
C         4.08513469251542   10.37466382285024   12.54593690770554
H         4.33479897730053    9.73179209874728   13.39141035164131
C         2.89727407039390   11.28160634717596   12.77896057135825
H         3.24285330643214   12.20500534761346   13.25771543153489
H         2.22741188548386   10.78187593912357   13.48164169478678
C         4.98623673977237   11.63281968228746   10.52973252137523
H         6.01349721883742   11.85837552667122   10.23633718407299
H         4.57800708903530   12.52850342928279   10.99876045887708
O         4.77906407441272    7.48087389107226   10.64881738289332
C         4.27329039859775    6.37141243186677   10.94443873198889
C         5.12385437517995    5.19740865824271   11.27112558863554
C         5.27847236036600    4.14215951262827   10.37154207566603
C         6.09550608411488    3.07680542836135   10.72704255264142
H         6.23240085925422    2.25393077414650   10.04226364996288
C         6.74851383637044    3.06238893339754   11.94407208576755
H         7.38159859286316    2.22740275868594   12.20729950215204
C         6.60571657406247    4.12241746525788   12.82025213873428
H         7.13697034192396    4.10608641412942   13.75887394720013
C         5.79480935346964    5.20108102194013   12.50146007428421
C         5.67924813540472    6.38610680491031   13.43431242307181
H         4.76684832402793    6.94262164674021   13.18972393478478
C         6.87262441499177    7.31543719814639   13.19230909535619
H         7.80715339317579    6.79115285300104   13.38216676857721
H         6.81863278509023    8.18231813951420   13.84804335232426
H         6.86891741253362    7.65496974656254   12.15940414689994
C         5.59447013593055    5.98575614004900   14.90704488332583
H         4.82694083445517    5.22976297218723   15.05663110091706
H         5.34150693035769    6.85547502206814   15.51018440269096
H         6.54287470155299    5.59510273239164   15.26717435765857
C         4.64406335812930    4.19427868041236    9.00281616034113
H         3.93579524062969    5.02678415491701    8.98465148521113
C         3.88155034992898    2.91060922076392    8.67589546184979
H         4.55987505881432    2.06936083101292    8.55895138330025
H         3.32999609516604    3.02952033423470    7.74579611567263
H         3.17149154892804    2.67972993355316    9.46621761742059
C         5.72271336615049    4.47416072633403    7.95211858101474
H         6.22424220410251    5.41413991931014    8.17131758036679
H         5.27650889762117    4.54175318139986    6.96206870688325
H         6.46695960415954    3.68105543102831    7.94322432450211
C         2.08158813802324   10.51344137943656   10.48929988576670
H         1.15179042943901    9.95247139900902   10.42331226206691
C         2.99878207751589   10.37464501057922    9.48717306645755
H         2.74911775879740    9.73176543874453    8.64170566342663
C         4.18664011703492   11.28158803644610    9.25413740825434
H         3.84105804129983   12.20498120584566    8.77537306708706
H         4.85650268330914   10.78185167122848    8.55146096275358
C         2.09767784337114   11.63282426099398   11.50336128340874
H         1.07041704436739   11.85838366587369   11.79675275398437
H         2.50590820066057   12.52850211580559   11.03432257706368

