34
CSD_code = LOBNUL | q = 0 | S = 0 | Stoichiometry = C15H10N4O4W | MND = 6
W         5.25949224497473    4.26111894530875    3.35842715001493
O         8.06175204104937    3.43801108075957    4.50048538487766
O         2.47126543412007    5.14246952412983    2.22506884866022
O         5.89279036695542    7.23994336331412    4.03162618051734
O         6.56499782181212    4.81704641877552    0.58331705250274
N         4.26325436819452    3.38403444265578    5.12753548854024
N         4.63110807494860    2.14075840409557    3.33303188703719
N         5.25767911505137    1.33775995870072    1.32285419871366
N         4.96392285642942   -0.84054118540380    0.60468682885360
C         7.02949680985190    3.71748571939966    4.09573793698115
C         3.47730190427345    4.79847309144297    2.64554220351507
C         5.66249754639980    6.14560548615504    3.77611435927897
C         6.08765897614839    4.64301832870372    1.61983521438847
C         3.82950318977067    3.63446273636205    6.35042282662940
C         3.20730229163980    2.66357735099984    7.12356430375449
C         3.03554978086581    1.39282483948138    6.59489814705040
C         3.48836698306103    1.12215861196242    5.31182038106362
C         4.10153369137601    2.15288654189940    4.60763469358645
C         4.69175504065215    1.14328330081816    2.52357982112505
C         5.41755889768298    0.37973179558745    0.33985646230919
C         6.03665623355032    0.72156133362740   -0.86565908222085
C         6.17912265482043   -0.26505228493358   -1.82091100981914
C         5.70655985268417   -1.54367283449643   -1.54905388551587
C         5.10868173100000   -1.77267626094869   -0.32157089418712
H         5.59858701543445    2.28489216080833    1.15283566329958
H         3.98347268034505    4.63926020065425    6.72280254809386
H         2.86497406478586    2.89995814143172    8.11795785293990
H         2.55451185489360    0.61841008395089    7.17271849087997
H         3.36729422513450    0.14367938151684    4.87460753468919
H         4.32634466556345    0.13674990816127    2.71675711160082
H         6.38817570481751    1.72783856494615   -1.03134818298263
H         6.65214768143591   -0.04387069069157   -2.76586878899596
H         5.80112053302287   -2.33796903880173   -2.27131503186847
H         4.72256366725463   -2.74741742037326   -0.05539169531399

