68
CSD_code = LOBPIC | q = 0 | S = 0 | Stoichiometry = C34H28IrN3O2 | MND = 6
Ir       -1.72019837481169    8.95571607853543    2.55302247543352
O        -1.93153786718102   11.57981194113105    0.48316825968017
O        -3.59612195425416   10.18461671690865    1.81431429737132
H        -3.00959528200195   10.80930512065746    1.26184442906493
H        -4.16972658263489    9.74462340731699    1.18492904157517
N        -0.46563434278598   10.71407322465005    1.95564925814818
N        -1.76074366441347    9.72952616986617    4.37767506391049
N        -1.69737850877744    8.09401323171680    0.73102884846423
C         0.18158998801157   12.67988711869384    0.66484553362864
H        -0.21727462305897   13.25161704385614   -0.16943489217820
H         1.13195076381094   12.22796398829752    0.38427656629501
H         0.35885470190505   13.34642009955795    1.50730290216190
C        -0.81834693317737   11.60255731981459    1.05537390551830
C         0.74448468686338   10.80492130431380    2.64506754736895
C         1.82003674586343   10.02038705462204    2.28777588878140
H         1.74992863198908    9.39463475529417    1.41001195298005
C         2.98159636126447    9.99088025527375    3.06288286185581
H         3.79955806929405    9.35492294339135    2.75648972014281
C         3.07979173530616   10.74123806067170    4.20158844896870
H         3.96972404605652   10.70492618039648    4.81326079394186
C         2.02078390452669   11.58554418639465    4.58965014591681
C         0.84568649416726   11.64075049313830    3.79651818374134
C        -0.18911854565668   12.51896767150803    4.17534702969989
H        -1.07686945839101   12.57384892856772    3.56122685402711
C        -0.08127621931658   13.29321870391923    5.29649877449502
H        -0.88044617865808   13.96635394057060    5.57206791422262
C         1.06860062374503   13.22059256612389    6.09568449309010
H         1.13831898876773   13.83370222482556    6.98295018459523
C         2.09441142447693   12.38799394089940    5.74761910528155
H         2.98844341249868   12.33637550977308    6.35368937192716
C        -2.68627464921544   10.59081852637806    4.79300013753387
H        -3.47767329107022   10.81437314556359    4.09056101195856
C        -2.65788354898477   11.17465921963114    6.04411828499438
H        -3.43234946999830   11.86524644399989    6.33677559105657
C        -1.61201607021654   10.86121078095323    6.90220729010694
H        -1.55096903419861   11.30778045725762    7.88289508590807
C        -0.65231790777887    9.96347138883666    6.47894963020215
H         0.17027484510691    9.70140366588994    7.12360828329000
C        -0.74412736201125    9.39829460207347    5.20887188080429
C         0.16843417413439    8.41326179961465    4.64986735461676
C         1.29856803659893    7.92552569174033    5.30173508677828
H         1.56357916718939    8.28955182507896    6.28303567463622
C         2.09274286480214    6.97812046729076    4.68846256591428
H         2.97264966067279    6.60285061219814    5.18980754490740
C         1.75698143750350    6.50818019378626    3.42867593205766
H         2.37453508014694    5.75940139037607    2.95288750671135
C         0.63909179001836    6.99648396846313    2.77150601882170
H         0.40482102149053    6.61449619774524    1.78720309962354
C        -0.16831110139824    7.96389172117084    3.35472813023883
C        -0.98268059155813    8.51857314874471   -0.30881203527499
H        -0.32266604113020    9.35384442837921   -0.12827961361037
C        -1.06323157867813    7.95004023911536   -1.56520118348579
H        -0.46579965242245    8.33899268749473   -2.37365676520127
C        -1.92666538938651    6.88009114067561   -1.75637418793747
H        -2.02065654927845    6.41226593404022   -2.72469804415970
C        -2.66004768058081    6.42193555292243   -0.67984564892781
H        -3.33187132429568    5.58754651817297   -0.79810155944610
C        -2.53254410702415    7.03813205057121    0.56481480111062
C        -3.23038167809770    6.62935013022371    1.77578562240935
C        -4.13932454665574    5.57239431134715    1.83295511883091
H        -4.38572334953153    5.00871555745194    0.94501500231428
C        -4.73646973809162    5.24133485648557    3.03138436195075
H        -5.44163293564998    4.42435638646789    3.07724901205475
C        -4.42590774907578    5.95919600058939    4.17666745529460
H        -4.88921028820328    5.69500811039897    5.11685358412197
C        -3.52824949917307    7.01225228536971    4.12206444930084
H        -3.30483850179604    7.55244400256238    5.03159381770550
C        -2.91454648560279    7.37801438025024    2.92966474268091

