78
CSD_code = LOBPEA | q = 0 | S = 0 | Stoichiometry = C20H42B10NiO2P2S | MND = 4
Ni        9.13743802264329    9.41044516826525   11.90826424201114
P         9.81652578749077   10.44323892246515   10.09733719340627
P         8.16153139244880    8.88102923900391   13.79061247517485
S        10.83656498674018    7.82120155011734   11.98170017525875
O         9.11107056509973   11.92657610229422   10.18010268936948
O         7.30708438042449   10.21920377412046   14.21789157018456
C         8.29757838312488   12.10020143774842   11.27531197867982
C         7.38855853987194   11.24324887701998   13.30214108752840
C         8.14910547192866   11.03366099283173   12.15608175848183
C         6.74530106786644   12.44866162170218   13.53981665490270
H         6.15763227991181   12.57181205448696   14.43591403446063
C        10.20518122251011    6.38538665487888   11.11512588612869
C        11.59215937135240   10.98307448071959   10.06636507577955
H        11.64424641951873   11.87474041389557    9.43101700221159
C         9.23718291387615    8.77817415029150   15.30055242350690
H         8.59769295208597    8.99543452987743   16.16345874452015
C         9.38803582808912   10.07747834458053    8.32301427190122
H         9.96716839103700    9.20729771167368    8.00922725688819
C         6.78849980961104    7.64375867894719   14.03185935460513
H         7.18505729855826    6.64858867960722   13.82810898686313
C         6.88248437750579   13.47584865417078   12.62156325331389
H         6.38467660838805   14.41713644594734   12.79649139648813
C         7.66546771508139   13.31604886489256   11.49111226414014
H         7.79901067825378   14.11871165324988   10.78302967996879
C         9.89905983754885    7.41671222760030   15.44948762591943
H         9.16119202841643    6.62280185148805   15.54587402394520
H        10.53444883776452    7.40366097955640   16.33384551440700
H        10.52040344030105    7.21558413826234   14.57899932877127
C         7.90271863972321    9.72824287656880    8.28384853084532
H         7.69323883993665    8.88789026638941    8.94385814118163
H         7.59752129419268    9.45577789691230    7.27561720637283
H         7.30744847619709   10.58163763340748    8.60615902418552
C         9.70635366301015   11.25185647975778    7.40565595046831
H         9.23255242012674   12.16005810265912    7.76974056513125
H         9.32613796525402   11.04403097305435    6.40669940809862
H        10.77740623760798   11.42142550118206    7.33022614944742
B         9.91556553506186    6.37611826456262    9.42795073773486
H        10.13802614634387    7.37151386579530    8.84895171614600
C         5.71094709184947    7.96309189159896   12.99769082298009
H         5.24401322188774    8.92012477721374   13.22370850285920
H         4.94158291871819    7.19386110010824   12.99744903130988
H         6.14094958298787    8.01804502588237   11.99844423225070
C        12.50519230247145    9.88724990892043    9.53505845980598
H        12.39114335545901    8.98688707415424   10.13551782126000
H        13.54460058352728   10.20664177262513    9.59112313832993
H        12.27740687857501    9.64549895019620    8.49942920037851
C         6.21704869505541    7.69722550742125   15.44385804638801
H         6.92474240961730    7.32451689989776   16.17975696730039
H         5.32076995555830    7.08107136005447   15.49621929547639
H         5.94493488791134    8.71807880767546   15.70245160783981
B        11.27282923873308    5.49466759032646   10.08973659908947
H        12.38743650890855    5.86170653976633   10.05945196584374
C        11.95989540686113   11.36425131561199   11.49771595424992
H        11.29964939703320   12.14752534430892   11.87030808843751
H        12.98676187296476   11.72100555195561   11.55573926040296
H        11.86296041854385   10.49047577638961   12.14462158468716
B         9.09339897369257    5.38596504039090   11.99142345195901
H         8.92525898466092    5.68753269480248   13.11261742660847
B        10.24209341000203    4.72404661867548    8.87943684881075
H        10.64643012053967    4.50372811666842    7.79675119495142
C        10.28204533365194    9.88157478432438   15.15446755713800
H        10.86120072419439    9.71873351629666   14.24287869087393
H        10.96708242597570    9.88486804225913   16.00040680001129
H         9.80578465562448   10.85944404181523   15.09082030336672
B         8.59031284187566    6.33893204148703   10.60160607773831
H         7.99162434579279    7.35315639706391   10.79736779966719
C        10.68145457919803    4.93743537702989   11.58915957243910
H        11.39342590938966    4.92537816354729   12.40498667379845
B        10.77848563898253    3.81753159666873   10.30881306317045
H        11.61661882285267    2.99422575812721   10.36119310841504
B         9.09858274264726    3.65060937415259    9.73196503009451
H         8.70894705265145    2.65433857784671    9.24167738065140
B         9.44536706641842    3.75430888921246   11.46487716319027
H         9.42335378013857    2.89951217076010   12.27274328445510
B         8.55905911883472    5.26464013707385    9.19023031666504
H         7.78636995399091    5.42505811169466    8.31606769402305
B         8.05453459165129    4.64900564538006   10.79191401541427
H         6.93877637529768    4.37277965019729   11.04670258931486

