38
CSD_code = LOBPAT | q = 0 | S = 0 | Stoichiometry = C16H13MoN5O3 | MND = 6
Mo        2.80348795687870    2.19498478905075    3.88904018265185
O         3.94149437518690   -0.33430207079764    2.53894547114765
O         5.06583601677009    3.91213472694580    2.66768794370027
O         1.26190026187717    2.35003295713448    1.22127252663464
N        -0.39514845856312    4.23176572728249    4.32152004819384
N         1.83365548298496    3.83017667479687    4.80197778205536
N         2.47975068980501    3.44834798670961    7.01564218816325
N         3.87012383695857    1.98903160628487    5.75304137678623
N         1.28612786750891    1.20952378311743    4.74124666778171
C         3.54311747177301    0.59653137669260    3.08567778502356
C         4.23697824119756    3.27146295563293    3.14071941861326
C         1.81650281457701    2.32304189151451    2.22811208831284
C         0.29708629625944    0.85798556641265    5.21456741322323
C        -0.94880897089318    0.40143342408765    5.76955543425647
C         0.87757278270920    4.38349681543586    3.96042896272562
C         1.26346393997897    5.06989345696138    2.80499841488150
C         0.27357929107383    5.55311824513595    1.97567569938017
C        -1.05895552147873    5.34911997286914    2.32126997852526
C        -1.33233542366666    4.69016583087941    3.50426618658573
C         1.69030045018297    4.00943500193216    6.05963567787916
C         3.55955432113532    2.58634103251349    6.91256901412535
C         4.28251558027681    2.36984448387021    8.09585144464751
C         5.36823941097369    1.52448995960740    8.08963575007810
C         5.69940105217134    0.91011212095689    6.88515226235362
C         4.93130659345682    1.17192014903408    5.77187819920114
H         2.31431484997168    3.77553589989575    7.95724862814367
H        -1.65650695269878    1.23053126542290    5.79298031019543
H        -0.79888484749902    0.02518531299815    6.78207573518165
H        -1.35576477001112   -0.39714296743503    5.14878487881619
H         2.31190422204747    5.19923531412696    2.58092188417469
H         0.53046131489888    6.07959252931399    1.06865784128586
H        -1.85865954455229    5.69769805962542    1.68757104595464
H        -2.35030007970881    4.51791184543199    3.83108546945954
H         0.90804249505237    4.66127293197129    6.45453640027158
H         3.98226083832281    2.87667815099371    9.00178986408684
H         5.93975368545862    1.34882135649463    8.98727182577728
H         6.54014906368359    0.24016200257373    6.81445968256619
H         5.17518336591380    0.70942983453069    4.82604851716065

