109
CSD_code = LOBPUO | q = 0 | S = 0 | Stoichiometry = C54H39CoN6O6S3 | MND = 6
C        12.38492672344444   11.57540685667241    5.99208544778706
C        10.14204703931340   11.61670850734781    5.29850579723466
C        13.41251338485737   12.51693360474924    6.43425987470202
C        13.44454869983544   13.89014694920764    6.35813905210580
H        12.68241386640917   14.51128238944317    5.93670470777034
C        14.67369436238805   14.28069839701750    6.92303201897007
H        15.04748714483499   15.27774662716209    7.03545301537793
C        15.29501141216525   13.12348173063647    7.29925249143372
H        16.24230180264338   12.94368418183089    7.76960614770439
C         9.42571242959271   13.75038343687526    4.43616463995101
C         9.90242091972096   14.59612341731145    5.43120124430515
H        10.11800187659650   14.19569781563569    6.40858292671526
C        10.09266397894902   15.93833136875323    5.15967069830698
H        10.46130571899335   16.59249347735213    5.93631564537765
C         9.80297842715020   16.44938611569804    3.90486092614327
H         9.95449531049206   17.49809449499008    3.69785545474914
C         9.31117532401696   15.61007073934938    2.91965308878498
H         9.07607842241843   16.00285847398645    1.94117123226383
C         9.11942330224509   14.26577820397126    3.18117329086213
H         8.73287353155668   13.60892140728900    2.41558269074034
C         7.97003221875811   11.85279899642379    4.22701805630343
C         6.79605749442193   12.52083850903795    4.55709074619681
H         6.84404541874034   13.39992734214775    5.18264175079272
C         5.58062891880180   12.05601004818463    4.08941453505962
H         4.67245274606361   12.57643396331854    4.35469666885136
C         5.52705324556206   10.92667720932746    3.29043616229937
H         4.57686069976464   10.56304028303547    2.92919448417995
C         6.69705621264927   10.26567633149191    2.95467136924287
H         6.66379835197260    9.38818745324573    2.32630577905071
C         7.91594219008148   10.72681083256798    3.41408449253398
H         8.82483278943252   10.21259624784090    3.14542020764765
C        11.16292790332574    9.31167634931628    2.60188694236317
C        10.82014002071566    7.02533131728268    2.99843185690272
C        10.96800450705084   10.30240234056524    1.54336047712331
C        10.62202499511055   10.14474139816142    0.22217147075566
H        10.45801964518698    9.21228501801515   -0.27612316890834
C        10.55073258658891   11.44477275165904   -0.31543261054934
H        10.30837302579442   11.71543481241984   -1.32262578038777
C        10.85566215343246   12.29216081454820    0.71181094036591
H        10.92446609721356   13.36148360194104    0.76218972512875
C        10.70914552895463    5.59211246047652    1.04082068523289
C         9.80276982801400    6.33823989684765    0.29341093317044
H         9.21245097815894    7.09712563414617    0.78051854291480
C         9.66483664874277    6.10033751821731   -1.06062414348480
H         8.95894644560729    6.68276041774780   -1.63467927499921
C        10.41437584382519    5.11414758706703   -1.68133522947450
H        10.30236038090622    4.93190796489560   -2.73942736956827
C        11.30410440947581    4.36026574694538   -0.93535879416054
H        11.88951360967704    3.58677732522372   -1.40990998970022
C        11.45407836402796    4.59405034896491    0.41904273035383
H        12.15172049017518    4.00807204823474    0.99901974783683
C        11.09169214557038    4.65780852959138    3.24186894064173
C        10.16887472521931    3.62252071864400    3.28921215712145
H         9.26289792078866    3.68985210442572    2.70565361499185
C        10.41741752173054    2.52306570875202    4.09220509513464
H         9.69599008874676    1.72064804863241    4.13520673574448
C        11.57786506041349    2.45474603754464    4.84450443476256
H        11.76469941152097    1.59978376285376    5.47636580160056
C        12.50546744979065    3.48250138152601    4.78444966842327
H        13.41336736470846    3.43595651986544    5.36616794247733
C        12.26914116902759    4.57745789255349    3.97679447713483
H        12.98904675959790    5.37967179104954    3.91731865156850
C        13.88348456650155    7.15394051905364    5.59770547052428
C        12.41167576592835    6.52640665447166    7.32547003685829
C        15.23936334416752    6.84878647036829    5.14053860133439
C        16.10904824814596    5.86533588702734    5.55091916564724
H        15.91458566936726    5.13151224170533    6.30466373929330
C        17.27176980250831    6.02774175136527    4.77333537204903
H        18.16646134781866    5.44109261708484    4.81559396803712
C        17.02462063603157    7.08996700122023    3.95067567093560
H        17.62466891516171    7.56449031728224    3.19869669006473
C        10.77016036296035    5.42559324288245    8.72158097453785
C        10.70343856239569    5.15658492520402   10.08275368588540
H        11.61635686305826    5.01673128603356   10.64273863533094
C         9.47216102644886    5.07655374956336   10.70775105375288
H         9.42270276208999    4.87357964529996   11.76725989534734
C         8.30931993414336    5.26293335641497    9.97986652839226
H         7.34953900880702    5.20628156868800   10.47135062848568
C         8.37871633545032    5.52038506645715    8.62027556043466
H         7.47487741256949    5.66052859434797    8.04717111259700
C         9.60391279437161    5.59447054722318    7.98509014612929
H         9.66222523095937    5.78840637243373    6.92477212072788
C        12.86392676104725    4.33846181253250    8.24428166137622
C        14.22495791097355    4.46899081823218    8.50051680010337
H        14.65799301504020    5.45368352528071    8.57025806373736
C        15.00601677994559    3.34045830612290    8.66583559742669
H        16.06239352416930    3.44732943741796    8.86555039147574
C        14.44072104923820    2.07758205116448    8.59105746765803
H        15.05522844794137    1.19954333062695    8.72162437176780
C        13.08225762301904    1.94842159310193    8.35628793971454
H        12.63346517999360    0.96723752394596    8.30565077328426
C        12.29330490007258    3.07077468344626    8.18344420866455
H        11.23491607950393    2.97343918294054    7.99329566167469
N        11.30431862763252   12.18390294935366    5.52003317358004
N         9.20333124190022   12.37615321178218    4.68682022878048
N        10.93721121893699    8.06646981319250    2.20785861604221
N        10.84736333178658    5.79576095632916    2.42661731817208
N        13.48471590970646    6.36510125877676    6.58311377944085
N        12.03973069660609    5.47325401558042    8.08952177067466
O        12.63302363455420   10.34901833611706    6.06449678529410
O        14.54467541068412   12.06121887622497    7.00638926148449
O        11.54934013003922    9.71994803199922    3.72365138707118
O        11.10682047722582   11.61314670081336    1.83165647269922
O        13.21689095417516    8.01370083667847    4.97065646783682
O        15.80498144370343    7.58530820949766    4.16349503480819
S         9.65638182539498   10.06857791079481    5.86806406985869
S        10.46443052590292    7.05510848841389    4.67621359933906
S        11.54617203914926    7.99359194165633    7.54215927185478
Co       11.58679562796826    8.89637112271074    5.44970091436985

