73
CSD_code = LOBQID | q = 0 | S = 0 | Stoichiometry = C31H36N2O3Zn | MND = 5
Zn        5.24376409946871    0.00003707950446    2.79298896428504
O         6.15992696981472    1.43665452139262    3.65033892206360
O         3.40899925986419    0.00006804982085    3.88632301326964
N         4.50286251582652    1.31178135632321    1.46100861209697
C         6.32497849259590    2.67515831702713    3.35420551657289
C         7.17757030545362    3.51682898801610    4.15648226808733
C         7.30849641957849    4.84250334561436    3.82647053621869
H         7.93384775444971    5.48741482196744    4.42208525815592
C         6.66569412314450    5.42034654773241    2.72432215074852
H         6.80902132522140    6.46889269968760    2.51107938027886
C         5.87828256262481    4.64329383516703    1.93050690147741
H         5.38199632093157    5.06383727765189    1.06620515375696
C         5.68188041266199    3.27627807217885    2.22160770880889
C         4.83820339230585    2.55792929945098    1.34608423501658
H         4.45651809525783    3.13480208461946    0.49770294804238
C         3.58321616694133    0.70711332423990    0.62826471712482
C         2.62879236099403    1.38610259893196   -0.12925387896180
H         2.58380641046462    2.46442734743299   -0.10120743020224
C         1.71083582330920    0.69326373510246   -0.89362715746914
H         0.97956857888834    1.23475450234834   -1.47514248456905
C         7.94649444275175    2.91766320656423    5.32772472370033
C         8.77362457688920    3.95255826293545    6.09840446570632
H         8.14114789566120    4.73022868478648    6.52159945823359
H         9.52957402139935    4.40999817623263    5.46426718671879
H         9.28626563364820    3.45410872994407    6.91904581705823
C         8.90553358131987    1.85778324531823    4.77255467523297
H         9.61845774012013    2.31488568174261    4.08885536810948
H         8.34716894426999    1.09778069836331    4.23699165186016
H         9.45493247449187    1.38352135480484    5.58270828328174
C         6.96986942528033    2.26784109778663    6.31467584264676
H         6.26244078695891    3.00591934053274    6.68913467601260
H         7.51277539032627    1.84483086191479    7.15744766193029
H         6.42512279084811    1.47609708630281    5.81494213643633
C         2.94734956138018   -0.00024115299926    5.00747373514515
C         3.79209575771462   -0.00076462288466    6.23907282207286
H         4.84104239475073   -0.00116525632114    5.95764332070660
H         3.57509816683429   -0.88053734135181    6.84104916343087
C         1.45893699533454    0.00001770081552    5.22945780129568
H         0.93448660870012    0.00038075564913    4.27780421630349
H         1.17231125372720   -0.87880454313135    5.80269177452890
O         6.16020241994087   -1.43653433001332    3.65015431275839
N         4.50254736685994   -1.31178399150174    1.46124529224045
C         6.32479575247771   -2.67517596426508    3.35432406303128
C         7.17771150205151   -3.51677725143969    4.15633415623637
C         7.30809679788626   -4.84259936548527    3.82669242368052
H         7.93351522571098   -5.48750593402648    4.42224257438725
C         6.66458756228085   -5.42062233535417    2.72505213723291
H         6.80744041806583   -6.46929950844948    2.51213337188120
C         5.87707226178160   -4.64358464923080    1.93132344830503
H         5.38023398311890   -5.06427115445501    1.06740801038657
C         5.68114758531558   -3.27643498297787    2.22211295777095
C         4.83749897391690   -2.55805963045993    1.34657656215168
H         4.45547178466448   -3.13504589262670    0.49842694707605
C         3.58294697816632   -0.70704108417308    0.62850395849735
C         2.62828340358463   -1.38590808616712   -0.12882905806732
H         2.58316467310138   -2.46422715163907   -0.10080062663034
C         1.71058822541628   -0.69296541546730   -0.89342131239928
H         0.97919946391700   -1.23436623995120   -1.47486443387245
C         7.94760583778466   -2.91741282779113    5.32683948388669
C         8.77467334066370   -3.95236146223780    6.09752172528982
H         8.14207839667742   -4.72956340566072    6.52140416582741
H         9.53009312742606   -4.41041572748162    5.46319774815290
H         9.28797043543391   -3.45377256789745    6.91766502834365
C         8.90682177441196   -1.85829013416683    4.77051935481305
H         9.61920177461029   -2.31615464205520    4.08676497586746
H         8.34854197531014   -1.09838297612957    4.23472363763796
H         9.45682940824365   -1.38374775648141    5.58009389364056
C         6.97193083562683   -2.26660105871915    6.31407579214647
H         6.26411459653236   -3.00403778767586    6.68906467629043
H         7.51556519355421   -1.84380717583069    7.15648324057477
H         6.42757615575650   -1.47454046859490    5.81441279930291
H         3.57583954301152    0.87905229543836    6.84126329175158
H         1.17266339449128    0.87864889175146    5.80316528659373

