48
CSD_code = LOBRIE | q = 0 | S = 0 | Stoichiometry = C19H23ClNNiPS2 | MND = 4
Ni        2.19446234034488   10.43263757824379   11.52348998608463
Cl        1.50666063355681    8.55984887945165   12.00063806490109
P         0.72930911153953   11.29747013159813   12.85087133195962
S         3.00149338758142   12.40683776218215   10.77752928527061
S         3.87785444049388    9.72908159867631   10.17823853696889
N         4.62321334433787   11.83367795721975    8.75700481972510
C        -0.03749068946337   12.85475585651368   12.30486859832579
C         0.64978299066203   14.05948843901444   12.42011055711435
H         1.62324033387187   14.07636449208977   12.88936267272951
C         0.08969434342158   15.22641448028626   11.93448190372487
H         0.62554852393230   16.15920616986334   12.03258469912099
C        -1.15037296370484   15.19992437123540   11.31731270038491
H        -1.58438701413003   16.11238446811705   10.93571206060507
C        -1.82780957324645   13.99940853202530   11.17833313084813
H        -2.78837587829772   13.97422892476387   10.68463657769587
C        -1.27225489687474   12.82933614999199   11.66277519338812
H        -1.79198219866838   11.88982213854287   11.53669460069185
C         1.72403699096472   11.79385938047615   14.29188825057151
C         1.23698396325157   12.61798148673907   15.30043636823834
H         0.23317588198159   13.01423489070005   15.23407728390058
C         2.04601384761721   12.93191399500709   16.37713385022758
H         1.67162122590724   13.57298651381991   17.16201599975364
C         3.33527188443057   12.42670941262410   16.45266591016214
H         3.96083450578587   12.67669952120733   17.29685809076939
C         3.82359155559629   11.60411156723600   15.45031927082264
H         4.82783522663369   11.21205130030904   15.51140667455767
C         3.01715480644172   11.28811227220348   14.37260890304819
H         3.38000271841515   10.63480605577854   13.56904804927320
C        -0.69331275018880   10.40067570926804   13.61452069470164
H        -1.39773469428503   11.15351799192789   13.98177918202747
H        -1.17196729766647    9.82164910251704   12.82072993156060
C        -0.26918623697904    9.46232582000997   14.73655795037874
H        -1.13411247997236    8.91236589779966   15.10114400678829
H         0.16432092393433   10.01608349799800   15.56667542675945
H         0.46385485548038    8.74998361533163   14.36661000289054
C         3.91900048269792   11.37469386658087    9.78164489420849
C         4.65067561584172   13.22349549945852    8.34832877836168
H         3.64574569501466   13.65115986662291    8.39138345941668
H         5.29356831063628   13.79563243125987    9.02813545214217
C         5.23165960772957   13.17020631075968    6.93876133240047
H         4.43799944995523   12.98193554849602    6.21477953055543
H         5.74094758998252   14.09205289113302    6.66786696798588
C         6.17371567766160   11.96839496890703    7.00856711140625
H         7.10502088457164   12.25209459525644    7.49992312979363
H         6.40642621995125   11.55677971156593    6.02936559037530
C         5.40188350335815   10.98150719024470    7.87933378664658
H         4.72930828308535   10.35321424006172    7.28317363451920
H         6.04707758736547   10.32277714507004    8.46611558177544

