63
CSD_code = LOBTOL | q = 0 | S = 0 | Stoichiometry = C23H28B9OPRu | MND = 9
Ru        4.03950405798500    4.43332478717540   14.70672268742085
C         4.72037895247129    6.20449645787011   13.34739687254414
H         5.18206451531154    5.74092465437279   12.47261797551926
C         5.50790193961671    6.15582525455829   14.66584268536040
H         6.49276623627627    5.68145516233501   14.66203987267307
B         4.43377978986240    6.18482821047610   15.99389629073919
B         2.73445815419114    6.30765298720933   15.26554899997154
H         1.76544306349824    5.94912864105850   15.83837771693874
B         3.05523851617960    6.22628697242513   13.56202845617722
H         2.36903091076910    5.83802776395960   12.67817472146601
B         5.56388027458281    7.65387956514136   13.83294293644967
H         6.57294610374240    7.89909900938159   13.27889039893444
B         5.37406684367647    7.60494345672589   15.58015253090507
H         6.27910085672327    7.88175750553236   16.28128540772579
B         3.61208488921085    7.72035869434776   15.95459566690775
H         3.23131950596975    8.24683038337987   16.93643555018648
B         2.76370855032859    7.83474395804863   14.37242692653662
H         1.75450921356663    8.42402721593331   14.23889852368512
B         3.97035529554754    7.71663930932640   13.10347741710856
H         3.86546748169427    8.10443972855914   11.99773303677665
B         4.32753367547673    8.65291345135832   14.60374087055609
H         4.42001954654525    9.82547886599722   14.60635136181593
C         4.43973284104311    4.91495921176250   16.84992728942932
H         3.65853197534787    4.72495510646256   17.58681678704340
C         5.25528886609020    3.82579796893709   16.49699568609700
H         6.29628947007976    4.00582032232785   16.23008549927821
H         5.12251833965504    2.88006061337737   17.01803703354218
C         2.57590617535934    3.33600200007048   14.76534126045032
O         1.60757851467102    2.70433311560083   14.81845017665381
P         5.21173091577750    2.89107023722674   13.41802500840347
C         5.68712866029403    1.29138719161983   14.16874876142000
C         6.87430084080397    0.62195827045316   13.89049552871606
H         7.60949414952652    1.06072606349566   13.22991930855933
C         7.12865994290518   -0.60878211355529   14.47044423327362
H         8.05551585574849   -1.11995580885133   14.25346379661662
C         6.20212180224210   -1.18505440123502   15.32251650730848
H         6.40597500422069   -2.14568180404820   15.77162096820372
C         5.01500462417564   -0.52556431112810   15.59891329222458
H         4.28949646180842   -0.97145618812560   16.26285160817745
C         4.76044903312188    0.70661693958940   15.02698639055963
H         3.84106935295336    1.23659842941528   15.24424115111575
C         6.80449124166814    3.51387105174500   12.77623422689107
C         7.89210014269904    3.62937958458790   13.64105194153823
H         7.81996686047006    3.22306812785274   14.64217725978116
C         9.05988973087787    4.23966784349458   13.22283957616582
H         9.89824457460564    4.31894957162911   13.89973479098789
C         9.15145212372312    4.75605447676322   11.93974142236694
H        10.06101479958113    5.23893141977646   11.61570459676260
C         8.07349346733853    4.65342830651050   11.07599859323838
H         8.14108735548528    5.05654060915578   10.07627305648974
C         6.90394515130346    4.04156391136292   11.49130711489022
H         6.06267409076292    3.96447680385645   10.81501696996481
C         4.43681448702395    2.25780591771267   11.88223920474608
C         3.18805687902204    2.74131372057998   11.51254745323325
H         2.70431216377143    3.48205716525126   12.14008723176208
C         2.57612496936757    2.27834338077800   10.36042061994249
H         1.60547423478875    2.65757247457892   10.07841882805203
C         3.20783473557299    1.32976622420516    9.57414832880166
H         2.73101845098887    0.96604157859701    8.67607517203469
C         4.45366544118426    0.84364853958681    9.94019747464125
H         4.94630835297264    0.10250231067900    9.32775265875273
C         5.06804795822884    1.30291084064904   11.08972861734523
H         6.03853158950311    0.92115326208646   11.37354766813809

