66
CSD_code = LOCFER | q = 0 | S = 0 | Stoichiometry = C31H28Cl2N2OPRh | MND = 6
C         6.68853158554913    9.39270604956481    5.51424175306116
C         6.19864095379098    7.95199077290494    5.38510261586902
H         5.47679062499511    7.79647820349946    6.19257555570314
H         7.04978808652514    7.29794785505370    5.59406968615723
C         5.55025892545892    7.63171951614900    4.03832147456352
H         4.48958952120201    7.91441101932233    4.10030425829225
C         5.63343352301482    6.20591227429559    3.59067477769160
C         6.82735741206959    5.49306038845538    3.56630719151284
H         7.74603012139028    5.95809895276280    3.88977467168979
C         6.85956318489478    4.18403195451888    3.11931067638737
H         7.79805499558567    3.64907087425608    3.10354750169038
C         5.69940127848699    3.56116552482569    2.69311142364506
H         5.72798346184226    2.53969896383134    2.34410088105809
C         4.50265805131851    4.25679335611440    2.72096922295036
H         3.59043518320854    3.77945080540943    2.39496134117910
C         4.47160536767140    5.56557260793575    3.16550465544765
H         3.53541638862726    6.10497500529871    3.18000037242425
C         4.99183771540550    8.64954261647769    1.43291530801180
C         4.06543281723732    9.64174024146188    1.13575642746702
H         4.09386123990512   10.57799496195096    1.67366858615384
C         3.12271651673206    9.42839432402521    0.14465739969506
H         2.40482748858143   10.20096993649331   -0.08627286403069
C         3.10022245907731    8.22912293543253   -0.54644116984032
H         2.36189390923395    8.06179768700795   -1.31724201572636
C         4.02822365023028    7.24035532836385   -0.25517941050515
H         4.01365543886082    6.30549924576259   -0.79683427830243
C         4.97552010589575    7.44481308051611    0.72950868038357
H         5.70257634846834    6.67598836201016    0.95098061497529
C         7.76135325276881    8.31921398518685    2.13582678924978
C         8.01650708326484    8.26739216690599    0.76964207559754
H         7.22592938175579    8.48573330655526    0.06642051424662
C         9.28148161245505    7.94806147863107    0.30727168768306
H         9.46685810972665    7.90523731223840   -0.75594693291653
C        10.30809603371882    7.69266817992850    1.19975868989325
H        11.29406288056690    7.44377737680878    0.83646581124280
C        10.07084496715336    7.77298500910458    2.56293837839465
H        10.87308513123648    7.59336578356149    3.26417838004384
C         8.81020595594001    8.09469211493965    3.02671338725197
H         8.63898501441679    8.19413959661286    4.08995699500204
C         6.83206849761258   13.50082790051707    5.09087604124502
H         7.35716296828870   13.54541477705103    4.14536691144699
C         6.71520704796820   14.63565577374355    5.87343336557220
H         7.16974738297201   15.55773367093106    5.54719404259203
C         6.00234590109840   14.56558827206745    7.05905656773285
H         5.88428458488627   15.43569105239892    7.68735108602726
C         5.44128988177771   13.35032087920173    7.41215958810796
H         4.87371523731208   13.23968953750082    8.32233807674446
C         5.60626165784735   12.26198655342829    6.57264227108091
H         5.16539622425690   11.30800812919145    6.82717858866749
C         9.21433160945263   11.17926769169070    4.60732069124531
H         8.88571163613277   11.05469878948621    5.63175552082796
C        10.54392819845912   11.43357674707578    4.32429158405566
H        11.25407655273838   11.52219615268451    5.13120633548523
C        10.93811283585052   11.57096810291996    3.00255765365033
H        11.96867061175719   11.76819228767291    2.74920744150311
C         9.97135524834993   11.45395532117456    2.01795344502501
H        10.21952796003091   11.56026655207635    0.97425412072915
C         8.66289601368410   11.19543965021815    2.38424322462708
H         7.88173194332803   11.13471492893355    1.63747582443934
Cl        4.07939850696768   10.41341487206167    4.53177550717227
Cl        5.82194110885451   12.40803072527436    2.32351204855574
O         7.31952635291477    9.73673102628156    6.48695108044398
P         6.16009869643339    8.89294680258638    2.79557419079663
Rh        6.29949189530946   10.72719588543121    4.08163313650358
N         6.28550937671717   12.33332367707792    5.42896348398050
N         8.28839629074195   11.05409508715262    3.65670705841841

