82
CSD_code = LOCGAL | q = 1 | S = 0 | Stoichiometry = C36H43ClPRu(1+) | MND = 9
Ru       -0.46069386694000   -5.92497441521175    5.39833819086721
Cl       -0.84675797493106   -6.93109731736124    3.30613523791803
P         1.55963242133801   -5.19865391291320    4.51310560968419
C         2.63348668707436   -4.58094844946590    5.88517668065481
H         3.56976111735217   -4.24890445892511    5.43029587166622
H         2.13494214928892   -3.70538368090238    6.31079594953583
C         2.92057400873413   -5.58337017553570    7.00401289652834
H         3.14391348601843   -6.56531739585017    6.58508322344090
H         3.80786924969749   -5.25318015673479    7.54842273912670
C         1.77229523784130   -5.68805881561434    8.01636538553539
H         2.07764765018741   -6.37130998674923    8.81548256772125
H         1.60716542098023   -4.70534926983853    8.46543825605090
C        -1.47900521762137   -4.47357564422569    4.66354566318949
C        -2.36873246877406   -3.71888977975374    4.26212049795081
C        -3.33258676043138   -2.93377171596272    3.69364483423006
C         0.48363347419334   -6.19684068092862    7.43258371884775
C         0.42709377857558   -7.50531538053276    6.87190995004968
H         1.31230975607846   -8.12853806795369    6.89002086854925
C        -0.77125449456317   -8.01881292480245    6.39098794507138
H        -0.81067863357879   -9.02538565657214    5.98987141165759
C        -1.96010809456313   -7.25598643053284    6.47668596067567
H        -2.90137461099912   -7.68173200352522    6.14673744969232
C        -1.93671138793857   -6.00843844149559    7.12493563005224
H        -2.86425544448256   -5.47369479284797    7.30157906786246
C        -0.72064517546280   -5.47741869274732    7.60427211029064
H        -0.71980757341009   -4.54592137575117    8.16073264504009
C        -3.39399897368263   -2.89023229275494    2.24790385269066
C        -2.97115592083722   -3.99752364200061    1.49694745453691
H        -2.65895722789701   -4.89584353276227    2.00960417564132
C        -2.99191088936099   -3.95073636143108    0.11901735772169
H        -2.67834937080306   -4.81321591740060   -0.44843993933934
C        -3.41538278940711   -2.80197076529837   -0.53507594906973
H        -3.42684794018979   -2.76696020765345   -1.61356660078097
C        -3.81901046253729   -1.69475394104430    0.19744728656687
H        -4.13315059044528   -0.79618280318106   -0.31105804766465
C        -3.81500054709144   -1.73354013616650    1.57671664550616
H        -4.08921605269524   -0.85559809381774    2.14300793519902
C        -4.24421869297230   -2.19042972752290    4.53346030705163
C        -5.53760773962833   -1.87052809414330    4.09901436316691
H        -5.87397639440878   -2.20552366142802    3.12923698870684
C        -6.39667969944724   -1.17550553109639    4.92649675127016
H        -7.39349144449408   -0.93992850345974    4.58666730256087
C        -5.98604861434962   -0.78448072611764    6.19242391476283
H        -6.65924650971308   -0.23567584074352    6.83270695296108
C        -4.71182052417809   -1.10765895935809    6.63982507045795
H        -4.39500467370370   -0.80541176526450    7.62652708731804
C        -3.85117797815821   -1.81220669606185    5.82557979155525
H        -2.85270096434360   -2.05770907010159    6.15882991663620
C         2.55687853027769   -6.46368884240902    3.58146101628104
H         2.11331056810679   -6.43379816473018    2.57766271708461
C         2.39498799928260   -7.89847019460493    4.08446981160880
H         2.86914299993854   -8.01955182104445    5.06117256758162
H         1.33312712042819   -8.14230701035578    4.16433193738546
C         3.06119639707896   -8.85921775893370    3.10127694647527
H         2.56009644404893   -8.78653790212456    2.13462023053116
H         2.95024184917495   -9.88453902945936    3.45796706484152
C         4.54042041907628   -8.52187958499569    2.94164521045497
H         5.05396572739544   -8.66876963867168    3.89492697396348
H         4.99628447781862   -9.19304699792363    2.21334697230609
C         4.71352629449154   -7.07518735074554    2.49019315473032
H         4.26839762975611   -6.94639202569667    1.50177303249339
H         5.77488748707721   -6.83386738309040    2.41373480555276
C         4.04380570781081   -6.11917757527509    3.47749492280633
H         4.18738368343598   -5.09169030602151    3.13772815285721
H         4.52373275318682   -6.22763048119460    4.45239405613689
C         1.56168804947219   -3.76506450946519    3.33317022098629
H         2.59688401029872   -3.63693115150506    2.99102173626135
C         1.09829817244017   -2.47881729393678    4.01819876049301
H         1.78259211097123   -2.20481077622254    4.82227426096188
H         0.10677787427571   -2.65368339550227    4.44850045916946
C         1.03644247351967   -1.31961411370546    3.02461868435187
H         0.67470175173439   -0.42587613743260    3.53533419884915
H         2.04288084545216   -1.10859385886991    2.65674082302938
C         0.13093757530928   -1.65294504666669    1.84625219593209
H        -0.88760056416137   -1.81544551120208    2.20220720788585
H         0.11387382612899   -0.81918473671672    1.14328516641605
C         0.62892817605055   -2.91338048166264    1.15139120209951
H         1.62923775670024   -2.73639520026830    0.75038176828023
H        -0.02843200621458   -3.16450343397410    0.31804221582206
C         0.66639955396174   -4.08074936412196    2.13278893598966
H         1.01662196761973   -4.97440634945722    1.61513503273405
H        -0.34327639495306   -4.28236068021781    2.49690457846833

