137
CSD_code = LOCTIG | q = 0 | S = 0 | Stoichiometry = C49H80Cl3O2P2Ta | MND = 6
Ta        1.44676317492105    6.50873059779436    2.87027490846294
Cl        3.38631610386126    6.00497025375130    1.77080688492249
Cl        0.31241348674296    5.22167164558397    1.26318940770065
Cl        2.69448072161016    8.11766920050323    4.10767886580505
P         1.32460361301959    8.56629933623134    1.19784787916794
P         3.23010341231559   10.83146478119877    0.01253702351714
O         1.72901381145672    5.15607111210200    4.04963835982206
O        -0.10864379851214    7.07067950686159    3.58731100118840
C         2.96995253222257    9.41093481838547    1.21348279556779
C         1.75744170306586    4.29787693108537    5.06708127299466
C         0.60839917807161    3.54099233741951    5.37240694943735
C         0.66115968534663    2.66305392803618    6.44268614429813
C         1.80221857777510    2.54676913275704    7.21609350271026
C         2.92071933588554    3.30046746830713    6.91549974487858
C         2.92658097208491    4.17334760418119    5.83888965741367
C        -1.22226585628182    7.22170264353631    4.31299486060215
C        -1.14248622565120    7.32923978162591    5.71624185280261
C        -2.31495722734747    7.48480596011737    6.43972124211445
C        -3.54818794849346    7.50889812820292    5.81761809083320
C        -3.62217194961744    7.37786946443036    4.44465467985803
C        -2.47745893646880    7.24282857479967    3.67525046182200
C         1.04072832090251    8.27451217855457   -0.61910266109888
C        -0.41041918036170    7.91894223504718   -0.94193978200652
C        -0.58463175045819    7.75790690535857   -2.45143223715163
C         0.34169974410460    6.67067322724697   -2.98448972577411
C         1.78944916582429    7.00031633453971   -2.63859920887448
C         1.94465772374661    7.15135534556457   -1.12818498046543
C         0.05315931429229    9.85536241981042    1.64934906066498
C         0.26364942926068   10.32387982939823    3.09034862163653
C        -0.88207487794211   11.23270403660417    3.52677485044839
C        -0.99869780187718   12.42929476810424    2.58758191387043
C        -1.20460525604203   11.95977364110386    1.15128987250654
C        -0.05905229423833   11.05181103303165    0.70667460743849
C         5.01687836697996   10.48119897089064   -0.47773219570626
C         5.54333705876003   11.66991038664794   -1.28437573351167
C         6.97366391829131   11.42948767321359   -1.75857661616344
C         7.04672282839044   10.17098205122187   -2.61465450183460
C         6.52783093896645    8.97761334696026   -1.82153102411880
C         5.09944638830693    9.22236750162651   -1.34119442930944
C         3.42650796891770   12.17853553014562    1.32548965696910
C         3.18015550772237   13.56607143219389    0.73144997665598
C         3.07370804938499   14.60087358773432    1.84919101525012
C         4.33873514575131   14.59499936287446    2.70255370555162
C         4.59248185810153   13.20338468500793    3.27532368117639
C         4.70869183631669   12.17264696528804    2.15286007363761
C        -1.92815878944663    3.59745494883251    5.27130954659647
C        -0.61442951015647    3.65625727991802    4.49239758333372
C        -0.56384165919919    2.55268731591661    3.42973451165672
C         4.35638747593634    6.08049513029143    6.56949627319156
C         4.14480553570125    5.00100136448665    5.50489718195239
C         5.39166741246016    4.12730551685994    5.35826372968748
C         0.19237189209921    6.32923939881025    7.61090146148247
C         0.19006150920482    7.29956741345494    6.42752287197745
C         0.56641072398797    8.70816508869405    6.89677182685454
C        -3.09282489211363    5.66957851614662    1.84313456439993
C        -2.57551598524958    7.07039811220825    2.17851739915092
C        -3.47240334558389    8.13230820711790    1.53800184622886
H        -0.20330103634674    2.06362031538061    6.68135035391752
H         1.81901787426475    1.86392933548753    8.05232103609229
H         3.80638692984453    3.20419104600412    7.52447886421381
H        -2.26203159068731    7.58334352840733    7.51274809104589
H        -4.44876420576393    7.62325244207815    6.40195569976731
H        -4.58708195075748    7.38075153811591    3.96182802637481
H         1.32246526803715    9.21194052852565   -1.12157407106798
H        -1.09488776917265    8.68936758805365   -0.58408447898126
H        -0.65902278133370    6.97581554761297   -0.45094991554537
H        -1.62308731693023    7.50507604073630   -2.67519633498193
H        -0.35681207038640    8.70554845707943   -2.94697364439855
H         0.07373039927253    5.71580410754659   -2.52885068650381
H         0.22405183310096    6.57607738466422   -4.06592334416579
H         2.08194765248387    7.93097032657095   -3.13191738635639
H         2.44898345503539    6.20842975413633   -2.99720316853907
H         2.98657904891571    7.35376370897975   -0.88449099948021
H         1.66333380002605    6.21329500347728   -0.64632409687191
H        -0.89715439679285    9.30706815475171    1.62306232169937
H         3.69636245548300    8.61717797769145    1.01613317095897
H         3.13874534284285    9.74626034928492    2.24014792730928
H         1.20588292251438   10.86807231284354    3.17572193269660
H         0.32142817691354    9.46012045918459    3.75557339106874
H        -0.71095295161690   11.57493152267424    4.54926210711891
H        -1.81674951277069   10.66639269002948    3.52134818058464
H        -1.83094577612129   13.06562731862812    2.89438942029608
H        -0.08489948480366   13.02518488315130    2.64395716411725
H        -1.26660106694334   12.82121339256916    0.48334810044665
H        -2.14944153128799   11.41536119747883    1.08063726071208
H         0.87080652488413   11.62032889210677    0.71618124488292
H        -0.23592623468424   10.72547224873715   -0.31808262778798
H         5.62611423289086   10.33640461542399    0.42146922270983
H         5.51559476135905   12.58090217851788   -0.68560499757905
H         4.89350275290080   11.82407039599191   -2.15059881486749
H         7.32196585629346   12.29365132003583   -2.32888667600577
H         7.62825848210689   11.31547983077772   -0.89069659493354
H         8.07586385566709    9.99180376358132   -2.93243263920438
H         6.43696483782682   10.30576855261572   -3.51110893308117
H         6.55465188223096    8.07662370530294   -2.43786542555397
H         7.17407335422593    8.80923973140266   -0.95663014625343
H         4.77608596589555    8.34835146521769   -0.77463342421664
H         4.43802453970450    9.33201794536508   -2.20481076516894
H         2.59657403488982   11.97978564453328    2.01686350423823
H         2.26023192351188   13.55838800094469    0.14003625630790
H         3.99530235499966   13.84583196136610    0.06231102103699
H         2.91494592568484   15.59365822466271    1.42291667338695
H         2.21198798001715   14.36758057006334    2.48009790380251
H         5.19062645960697   14.89347093712667    2.08668259493641
H         4.24373117049014   15.31983983048161    3.51371324048056
H         3.77059558088808   12.92714890963969    3.94048311930273
H         5.51067083478443   13.20710061213182    3.86645745240292
H         5.56689266204503   12.42984135342905    1.53050949483830
H         4.88215604478676   11.18493251710403    2.58583064793936
H        -0.57793325075706    4.62590510694051    3.98231983205955
H        -2.75693361959144    3.82722706436139    4.60547455371772
H        -1.93269145377359    4.32817970411378    6.07693960951428
H        -2.09638082968781    2.60853533905211    5.69007575765379
H         0.33370466668904    2.65325852161986    2.82261220222358
H        -1.42889965810300    2.61737101376347    2.77340862160922
H        -0.55455070630540    1.57227191979944    3.90220137280682
H         3.97258356262483    5.50056255715811    4.54482671195047
H         3.49951368993431    6.74926515199670    6.60540646985284
H         5.23688075734538    6.67166587910274    6.32912178692789
H         4.49259871134426    5.63207003102991    7.55158030255927
H         5.21435164242259    3.33021206807308    4.63960023662954
H         5.67384941451571    3.68073818407955    6.30858392815446
H         6.22392192851029    4.73112798162477    5.00380049925067
H         0.95075516124901    6.96036968938374    5.71923839899124
H        -0.14371486142861    5.34244887615112    7.30280250765374
H        -0.44884523392262    6.68348533911487    8.41415481803953
H         1.20243659360630    6.23190313222044    8.00238130470004
H         0.66383128544788    9.38056559808014    6.04851023498722
H         1.51948091559864    8.68371056668848    7.41957199542930
H        -0.19240036619772    9.10200982580083    7.56975711495467
H        -1.56569763668601    7.15833960115734    1.76145200062467
H        -3.18477771479226    5.55633838257616    0.76564264016558
H        -4.06549290175208    5.49784716423516    2.29957781625016
H        -2.39651771243176    4.91784045836311    2.20315728970864
H        -4.51634195756339    7.96180631937383    1.78813878273532
H        -3.37668888207690    8.09395782730847    0.45506934786309
H        -3.20236618116035    9.13010163163671    1.87868928739913

