63
CSD_code = LOCVOR | q = 0 | S = 0 | Stoichiometry = C30H26N2O4Zn | MND = 4
Zn        5.19159878535378    4.54385747522000    7.17730986506585
O         6.92704331294308    4.89808124042080    6.71247548335507
O         4.20407234311595    6.06624537608984    7.44916804041868
O         9.25528186936483    3.98940781566832    1.80764099402026
O         2.14519887147014    8.06558148058672   12.13235537606310
N         4.88713159382360    3.20417990261224    5.80659221535569
N         4.58856008191607    3.63720365654734    8.77991366782300
C         7.43546147456197    4.67047026431715    5.54843838764331
C         8.67549974696955    5.26974526936162    5.21870970813160
H         9.12405513220406    5.90727941425948    5.96524233370912
C         9.29609670816388    5.07447735964106    4.01337251869076
H        10.23835016635255    5.56562292160695    3.82461123670282
C         8.71316558567259    4.24769635810114    3.03989325230162
C         7.51117668344102    3.64167677560737    3.32397076715350
H         7.06673122281179    3.00534840888383    2.57321865747469
C         6.84686733835280    3.82816600103939    4.55262864356722
C         5.62090397297278    3.14418533690532    4.74248102888934
H         5.30268614655847    2.48451047464848    3.92837404464355
C         3.69586127072986    2.47049136139131    5.88398917293868
C         2.73157716023735    2.59913728460084    4.88750106205492
H         2.92664656030738    3.27599315626156    4.06720133645452
C         1.52902220269514    1.91568084582350    4.95116717531398
C         1.30692227719073    1.07181016754168    6.03408431762133
H         0.37587402414856    0.52875430407249    6.10544937904321
C         2.26591024027160    0.92220209661767    7.01543095263690
H         2.08208830254583    0.25836466585171    7.84815232330106
C         3.47082429191094    1.61987522756908    6.97262929532404
C         4.46999603970521    1.33577672924130    8.02565728963116
C         4.87629317048150    0.01571934605724    8.19741958790814
H         4.50390040030098   -0.73353884125664    7.51351101226080
C         5.74699349610633   -0.35037686818289    9.20585086398904
H         6.05398611691124   -1.38176852439467    9.29960544068989
C         6.22744267614984    0.59635680493253   10.10120473382624
C         5.81461598286960    1.91148522919741    9.95163295393739
H         6.18751810170759    2.67227656659679   10.62355509390009
C         4.95652509133242    2.29321560994866    8.92530837250159
C         4.07807398983988    4.28474031831414    9.77931761693011
H         3.91515854587372    3.74012051329380   10.71592842182105
C         3.66024526034179    5.63558004774523    9.75499495589366
C         3.11973239972276    6.16832451667000   10.95163191299950
H         3.07292846594943    5.51243258419937   11.80833659933009
C         2.67631778272441    7.46247974833239   11.02453006916597
C         2.75771243973503    8.27556385244263    9.87512916038685
H         2.40336655621787    9.29200153315979    9.95130482878991
C         3.26814732295355    7.78921375210685    8.70875594985351
H         3.33175823599391    8.41229014026113    7.83006551898253
C         3.74622677487798    6.45575705283750    8.58847535429408
C         0.49563585758311    2.06410455658732    3.87709504305584
H        -0.48487194836088    2.24400492618427    4.31396299953341
H         0.43401665268023    1.14977516669177    3.28669475713765
H         0.73997352711965    2.88781597820631    3.21166146287800
C         7.18371638626721    0.22188368059872   11.19160860301168
H         8.19967712102009    0.49082489265959   10.90159794657659
H         7.15624085029998   -0.84807164489232   11.38239756442920
H         6.94876313457733    0.75204886558321   12.11222836378871
C        10.47895049830333    4.59651034107547    1.47694909524463
H        10.71070848065399    4.25826906719488    0.46793022601338
H        11.28200081597090    4.28480373200435    2.15348670944833
H        10.40346372375001    5.68913595862818    1.48109012649987
C         2.03975267820152    7.30880949338923   13.31084140036245
H         1.60331387761570    7.97545116024409   14.05297908030142
H         3.02083041669534    6.97069877601150   13.66155843680485
H         1.38518171170660    6.44104029710458   13.17510121210960

