58
CSD_code = LOCZUY | q = 0 | S = 0 | Stoichiometry = C22H29ClN4NiO | MND = 4
Ni        3.02334336376030   -0.91507463745077    3.18110815358266
Cl        4.62077963513053    0.32360734092516    3.14228305412805
O         2.04514898482769   -2.42652331708176    3.33555133332419
N         1.79248542001800   -0.14977545386147    4.87494962060402
N         0.47742954135426   -0.35326982472514    4.69446797892343
N         1.77578608780062   -0.05642141659987    1.91887703846918
N         0.53579468799878    0.22842530199719    2.36291489546898
C         3.28874467138716    0.63934636027772    0.11541420396242
C        -1.41010097145328    1.70285306052919    1.79044809528609
C         2.01019043422506    0.70855295817029    0.86121391984946
C         0.88343258182920    1.50255225722304    0.61149634986746
C        -0.03792750160347    1.17358428788328    1.58102899617887
C        -0.13377732761385   -0.54820249848821    3.39235011402103
C        -1.64049024024576   -0.61204241494623    5.99155049384083
C         3.34574576074321    0.22081149449464    6.73255367576337
C        -0.17927443457420   -0.37280584052033    5.87860069272176
C         0.76884814483703   -0.15836745745005    6.85461515477157
C         1.99163980462812   -0.02619704662779    6.17801475882037
C         2.65490720790264   -5.27617333205711    3.42864349931303
C         2.97490475212598   -4.20141004271040    1.17032218941371
C         1.68130133266041   -6.30304977432057    1.39281895302086
C         1.99744896182724   -4.96840511386906    2.07645725120713
C        -2.98883515393792   -4.28317790702641    1.68306206469729
C        -1.64540309640246   -3.74788987117529    2.07861118543986
C        -0.50678762199947   -4.54141189833608    1.93944776125796
C         0.75476834833077   -4.11567500014409    2.29398189375020
C         0.90037901333712   -2.82110548858527    2.87902998683086
C        -0.24847089359303   -1.99959452556829    2.96828029962970
C        -1.49161363620704   -2.46559087777692    2.56559526614266
H         3.79746735696018   -0.29347535621127    0.36026278578190
H         3.11147232641518    0.69867643632191   -0.95588286769374
H         3.93866672243829    1.46114133206965    0.41233396658502
H        -1.52853818296619    2.09914694276243    2.79852594717351
H        -1.59175738662648    2.50589812842080    1.08186719252499
H        -2.15843299851132    0.92719492527702    1.62689458810191
H         0.76473918726324    2.22071034597923   -0.17321146549466
H        -1.14766407675991   -0.13932736264096    3.46793760144500
H        -1.91213060498622   -1.54919323808435    5.50671840912119
H        -1.91741691355170   -0.66610674204718    7.04048567954427
H        -2.21017100452351    0.19473989587041    5.52804656736982
H         4.06003631308036    0.27895334751354    5.91328173431882
H         3.36507111106416    1.15449367736669    7.29221905759810
H         3.63374271895555   -0.58663432016502    7.40400892669039
H         0.60683588471203   -0.10878319201192    7.91170566004754
H         1.95917157929120   -5.81233663613981    4.07231488296282
H         3.53980209771265   -5.89285420293669    3.28303845123385
H         2.95042606673451   -4.35920723169910    3.92891191444687
H         2.50548964911675   -3.98234965790635    0.21230608767738
H         3.28507125306745   -3.25946007774369    1.62454488623183
H         3.86612812881037   -4.80029473979463    0.99345925556859
H         1.02233779075765   -6.91422977579150    2.00553985132889
H         1.22381292303655   -6.14805938922161    0.41808377907048
H         2.60691431015608   -6.85580980949355    1.24488887711883
H        -3.75618092491284   -3.51847107957125    1.77644649891862
H        -2.97258379103022   -4.63566210229359    0.65261427534915
H        -3.26303394061463   -5.12598299687330    2.31733772723397
H        -0.64300879817017   -5.52479447982810    1.51892929622561
H        -2.35336465401452   -1.81399196330096    2.64000155323199

