113
CSD_code = LODBOV | q = 0 | S = 0 | Stoichiometry = C44H58N8NiO2 | MND = 6
Ni        0.72709893050529    3.69523587067321   13.34302599142570
O         1.32769918194218    3.21102007301895   11.63808618330490
N         0.40532334851913    5.89125816690817   11.48400300466397
N         2.18781686749173    6.30618904005154   12.98171777391008
N        -0.30753145793133    5.22947849046649   12.40680124830069
N         2.44622380013173    5.27623327346590   13.79853109712416
C         0.11877986203311    7.22406573285221    9.39213396559102
C        -0.39584497213113    6.45219079825751   10.55238857387834
C        -1.68803577829765    6.13305612569311   10.90977053333575
C        -1.58682814353869    5.36757548524566   12.08111762759921
C        -2.70188282764771    4.80262816853514   12.88196510213585
C         3.29469227558414    4.98458207611758   16.10613945325410
C         2.83445675949177    5.80045421524362   14.95166784426847
C         2.80159491325166    7.20253803124018   14.87417306176715
C         2.37690676597995    7.49698591712785   13.59928611625643
C         2.12925333844979    8.80898253889824   12.94683931877007
C         1.83922166585850    6.09293917773141   11.59862988474051
C         2.69737757778620    5.02147705794853   10.95399759514618
C         2.35654852527029    3.64688351150313   10.99239363157736
C         3.17340957756428    2.75559856762670   10.21562254555716
C         4.31222630683415    3.24704186581606    9.61731136257097
C         4.70017240955543    4.58446076938760    9.68727880753903
C         3.85677840835258    5.46363032588273   10.33079048266831
C         1.35449031525281    1.39355938044429    9.27197147698538
C         3.67067194557429    0.52268372028040    9.08192151716839
C         2.55134920229984    0.54656797122378   11.29087081017818
C         2.71512769167374    1.31967356636201    9.97711587545667
C         5.97408962659494    5.03823623644969    9.03744488964535
H        -0.69906658009314    7.43632338690216    8.70910444102294
H         0.55410804794383    8.17344342285919    9.70846498178653
H         0.88281393137300    6.65568659287601    8.86277507344072
H        -2.58581977663239    6.40858998052384   10.39491726198403
H        -2.42737199930180    3.81496335935476   13.24267611194177
H        -2.90064047604702    5.42738739141744   13.75016301973327
H        -3.60440335517386    4.74696692605164   12.27830958945364
H         2.66746416427161    4.10540455543766   16.21709020590956
H         4.32021152287624    4.65349127039460   15.94341060475478
H         3.26201081898240    5.57486293793208   17.01848197418550
H         3.05193609645977    7.89814169742406   15.64913443033232
H         1.10177538647323    8.87548551368338   12.58791243537338
H         2.29482289541936    9.60441056414184   13.66820735048363
H         2.80348066006527    8.96733068624857   12.10371712068813
H         2.05101503347255    7.03449707527510   11.07621958958159
H         4.95392223346888    2.58425978168969    9.05873494615577
H         4.09874266239967    6.51966339140261   10.35203602167599
H         1.43742677658594    1.95285764124371    8.34140629339004
H         0.98611171472004    0.39423713284791    9.04689320801068
H         0.64601896945133    1.89121653251699    9.92252972270883
H         3.76167353089612    0.97534288663048    8.09708049602215
H         4.65880286714698    0.43961394940030    9.52982113064900
H         3.27685352123793   -0.48413649057235    8.95263908941273
H         1.95346560190309    1.12086470486426   11.98993833218014
H         2.05277927903440   -0.40305344234643   11.10163163064019
H         3.52230526990881    0.33733527118159   11.73600303742221
H         6.11645591036252    6.10838144096402    9.16894843094586
H         6.82932523502452    4.52054159715757    9.47154064692617
H         5.96108595927848    4.81972064752461    7.96956255278145
O         0.12672672805810    4.17920228314964   15.04808108089984
C        -0.90335974563194    3.74416606779328   15.69233863411875
C        -1.24556529046779    2.36989495630098   15.72980235344166
C        -0.38741113855582    1.29783975120113   15.08611095620057
N         1.04646371612008    1.49884813300667   15.20193531591172
N         1.76037000142054    2.16036463088607   14.27978727500632
N        -0.99287937955580    2.11498671508019   12.88608611048353
N        -0.73498698487449    1.08480543516926   13.70274494853927
C        -0.92387883155296   -0.10581221823523   13.08478305157977
C        -1.34790962997184    0.18901036261052   11.80975345257957
C        -1.38061216969311    1.59112405761826   11.73261711689176
C        -1.84023473979565    2.40751430732954   10.57824272228329
H        -1.21152907655785    3.28556394118236   10.46660274800357
H        -2.86502006192301    2.74055248717117   10.74160355896300
H        -1.80918314406627    1.81694763473526    9.66603042750870
H        -1.59793251258391   -0.50637479622770   11.03449320790159
C        -0.67673232483751   -1.41795241447690   13.73713106965518
H         0.35049987743045   -1.48457746451960   14.09673638726015
H        -0.84188175673826   -2.21324951165480   13.01552461020551
H        -1.35151663578524   -1.57639856791162   14.57979350962168
H        -0.60016025015162    0.35643673975026   15.60842293783760
C         3.03929418900624    2.02229079409127   14.60693630886498
C         3.13916601357037    1.25704399407648   15.77855859264313
C         1.84655579743739    0.93806885334191   16.13456427077247
C         1.33055730802588    0.16655366981195   17.29444558644128
H         2.14766098903931   -0.04583047220169   17.97832267839241
H         0.89524558614679   -0.78274182651960   16.97784711308093
H         0.56617700523462    0.73527206097460   17.82294044768340
H         4.03637410716901    0.98151929894835   16.29442094959111
C         4.15513382648921    2.58699794233968   13.80704055577760
H         3.87830331985810    3.57167511876884   13.44000993905203
H         4.35954807555670    1.95799228040274   12.94317206189631
H         5.05534269922683    2.64931995135877   14.41353947998326
C        -2.40645543108877    1.92872866285605   16.35090694375807
C        -3.24997791808603    2.80857713561624   16.99334358508924
C        -2.86062740332382    4.14552132271912   17.06467103013641
C        -1.72031839188320    4.63597503317010   16.46838868081363
C        -1.26063384795855    6.07122173342025   16.70830192552754
C         0.09898999870420    5.99519341965125   17.41519142532887
H         0.01403918672507    5.43569913578317   18.34545666470698
H         0.46846233628606    6.99392410090665   17.64110049359340
H         0.80763975660132    5.49674473531068   16.76541492462369
C        -2.21639789256636    6.86880185693708   17.60273345727244
H        -2.30930533627475    6.41557467974405   18.58713477782285
H        -3.20381838874936    6.95341072112351   17.15354848568380
H        -1.82150369365024    7.87504356732951   17.73323916303992
C        -1.09416309172635    6.84496362334460   15.39524924310499
H        -0.49589235378420    6.27044274232072   14.69669499237408
H        -0.59479303508207    7.79390367557551   15.58579664566197
H        -2.06421347270810    7.05559271691016   14.94877563409194
H        -3.50247687646391    4.80874544182500   17.62255195225911
C        -4.52558798565120    2.35595080911897   17.64064813933548
H        -4.66902698869038    1.28606402650116   17.50821333425694
H        -5.37941192140633    2.87496289430457   17.20534548244012
H        -4.51422916622694    2.57378263431261   18.70868836958741
H        -2.64951566800179    0.87296457639077   16.32883968599889

