21
CSD_code = LODCIQ | q = 0 | S = 0 | Stoichiometry = C7H8Cl2N2PtS | MND = 4
Pt       -0.05048710287480    7.44629212275326   10.49638118976879
Cl        2.22115211776054    7.46275039804945   10.88145524969561
Cl       -2.33092530054078    7.53430948581549   10.13054567180140
S         0.47530513982236    3.51168471362639    8.45277823050872
N         0.04362520572071    5.60260403084711    9.87451434453900
N        -0.16083801847501    9.38915969997583   11.15540798494438
C         0.52736061903094    5.20885567831155    8.73684801160361
C        -0.26414672681238    3.30106155378353   10.01543818020033
C        -0.67705721154609    2.13718149376589   10.64656928832687
C        -1.23784612273737    2.24677573633017   11.90307128544738
C        -1.38527796207960    3.48691002646110   12.52675498434621
C        -0.97626097171371    4.64629415278843   11.90620277628516
C        -0.41289184225183    4.55336143202786   10.63479160703369
H         0.23300528487569    9.47924113033023   12.09370094356041
H         0.37241131897911    9.99291134898949   10.52728654557529
H        -1.14305888061525    9.67692477026754   11.15712257894364
H         0.94369980098891    5.87655696083819    8.00266773947738
H        -0.56063388066263    1.18026923673800   10.16387530949855
H        -1.56813841006169    1.35520533320826   12.41339663804811
H        -1.82703792750165    3.53417854774690   13.50978130616256
H        -1.08265912930631    5.62117214734673   12.36601013423298

