61
CSD_code = LODGUG | q = 1 | S = 0 | Stoichiometry = C21H31N6PdS2(1+) | MND = 4
Pd        0.86093466103248    1.29886037823692    2.51297657295819
S         0.92483795756668   -0.70093876931471    1.44351533644614
S         2.07633069817093   -2.00912533443982   -0.93131549332138
N         1.82983815708043    2.31038905820874    1.10424355794209
N         0.65767119707192    3.17099564360188    3.49603407850100
N        -0.82700040638986    1.74635767725405    4.69160941846233
N        -0.28582714814528    0.67979823479875    4.05867360949956
N         1.87085983055207    2.37876740331500    5.40466748693766
N         1.18726516758426    2.46232035429005    6.56132688388223
C         1.89195073436615   -0.56259604949367    0.04071649024433
C         2.54920940199435    0.55669541990809   -0.42422803028131
C         3.39866900545001    0.50640966885545   -1.67213283557724
C         4.20044872131572    1.80651676447379   -1.62459573508709
C         3.31202132622536    2.77030561085392   -0.83663167754859
C         2.49842742191033    1.87501334575373    0.06521268572476
C         1.82870043322554    3.74132185602882    1.39261967518970
C         0.68568329453903    4.09478036298764    2.35413313561444
C        -0.63934175869376    3.08063251915965    4.17127767303479
C        -2.17426801114949    2.30971633144603    6.70815237845900
C        -1.49929718783470    1.35843115024193    5.79761073399653
C        -1.37069670695943   -0.01307781373178    5.86762249971647
C        -0.59317750043599   -0.39905092066934    4.76877895264065
C        -0.12597833318513   -1.75676958488725    4.39797999250596
C         1.74676315050912    3.43660484266329    4.45788883341733
C         3.51804935846870    0.88430534388237    4.21221478392113
C         2.61342495897274    1.23168972255642    5.34349344491740
C         2.37627321560031    0.56784097411311    6.52246028256137
C         1.48000192218498    1.37839584505233    7.25094419381515
C         0.90817504434085    1.11416685488912    8.59393748062811
C         1.12308679264109   -3.26259238133668   -0.03899187581751
H         4.03754663677945   -0.37622254651513   -1.69067769445386
H         2.75631035832151    0.46623437824441   -2.55546227251824
H         5.13343314585436    1.64509452072117   -1.08385151465696
H         4.44178050557992    2.18428345501354   -2.61510640654489
H         3.89213175923019    3.50715687404550   -0.28096485784022
H         2.63319669982269    3.30683252334881   -1.50618071661154
H         2.79850991945704    4.04215936128341    1.81461790261099
H         1.68282444152858    4.31754088491648    0.47050771740618
H        -0.25976295868526    3.98699763238185    1.80764111642793
H         0.78379635543857    5.13740262233067    2.68667496603018
H        -0.70501458138885    3.78293013003344    5.01482674212163
H        -1.43752752298665    3.30495717133026    3.44559182966875
H        -1.43568752530468    2.96923951828992    7.16392230280621
H        -2.90691301081699    2.91526190453261    6.17664667308927
H        -2.68148290912604    1.76077331591790    7.49524010233130
H        -1.78174596401973   -0.65869215003965    6.61500519537193
H        -0.22284920921930   -2.42864979769892    5.24511696376324
H        -0.71784204317454   -2.14773496633564    3.57110538949634
H         0.91486947864292   -1.71700027996934    4.07662428478836
H         2.68468051533633    3.54508227882380    3.90437083200805
H         1.53528226894558    4.36103550206633    5.01777202195777
H         4.09422930627469    0.00399199815120    4.48419874849940
H         2.95269293005398    0.65214616770250    3.28235596235431
H         4.21496954681711    1.69807733949032    4.00640411028391
H         2.79206526865817   -0.36784162732131    6.83289020695504
H         0.40893508182532    2.00264668721823    8.96869524529600
H         0.19015775114630    0.29666449640618    8.54265088527436
H         1.69754760621544    0.82727166805432    9.28495166903916
H         0.07993305621255   -2.96604550192531    0.00968824636025
H         1.22858904042502   -4.17510100410482   -0.61731514598307
H         1.53240865415621   -3.39635706510204    0.95756496129320

