72
CSD_code = LODGOA | q = 0 | S = 0 | Stoichiometry = C26H42P2PtS | MND = 4
Pt       -0.48703309585335    3.65237130993036    7.28355855044283
S         0.09828085124891    2.62901163074510    5.20424023415392
P        -0.42368779916536    4.90934525076975    9.20886767872429
P        -0.76153685029971    1.43197339555419    8.08750233303068
C         1.67823619840901    3.37545190637350    5.46491552707620
C         2.80159064460191    2.56247502127992    5.54679763517566
C         4.03978113713725    3.11508009861198    5.81707595950493
C         4.15587435810496    4.47558384398067    6.02694368301694
C         3.05186007197001    5.31465036971239    5.90446908825738
C         1.81097009715377    4.77489647371864    5.57156108230072
C         0.60272759061479    5.60239364791109    5.35809364294045
C         0.53637310091955    6.57822512291433    4.36149792608125
C        -0.63553286907319    7.31373866973383    4.22171527344919
C        -1.73393569041267    7.06587149829547    5.02007938691954
C        -1.68725516041027    6.04543397407284    5.95771296651598
C        -0.52634828468150    5.30755349796698    6.12985295933405
C         3.22783129076422    6.78039829044145    6.18355185365670
C         1.65956839084783    6.82073989356798    3.39488233549002
C        -1.77907803801774    4.84227941917307   10.46195000815952
C        -3.10419462558312    5.23558577972282    9.82224114775321
C        -0.13146807836274    6.71609602600773    8.96131979237286
C         0.01841726764851    7.58066882458399   10.20613783726878
C         1.03748354723848    4.37100574470485   10.19642868592844
C         2.25517601965939    4.28967537908824    9.28469589051900
C        -1.29189848147667    0.99546948268189    9.81822594136091
C        -1.48022952760459   -0.48006837592759   10.14341169175697
C        -2.20066823886303    0.85084315883956    7.09101971249731
C        -3.26101471661991    1.94551177878173    7.03743761402909
C         0.48155801636525    0.13364141539432    7.68122912099478
C         1.77761271773040    0.31864015979365    8.46014905299800
H         2.69195183646605    1.49684881720055    5.40750831753418
H         4.90962550098149    2.47744891857560    5.88790844425839
H         5.11466986457787    4.90301722725979    6.28568553572708
H        -0.68579730312598    8.07842464955203    3.45862335929428
H        -2.63722506043587    7.64787066220049    4.89676568674181
H        -2.56901011745426    5.82741581420244    6.55152458883064
H         3.81685808289943    7.25333042890320    5.39831172863414
H         3.76592195130620    6.91622403286550    7.12214140665313
H         2.26842044471722    7.28710791708233    6.24948773669806
H         1.26345750905033    6.87545356202727    2.38157568467272
H         2.39615111521651    6.02292902639010    3.43695064473255
H         2.15633954265289    7.76787089175292    3.60712431817321
H        -1.82922976852434    3.81167851047218   10.82214970167812
H        -1.53743789130972    5.48509819509230   11.31133203420811
H        -3.93360335635390    5.07257866904213   10.50808250857917
H        -3.26794126420619    4.63717890724907    8.92596702787270
H        -3.09802186266547    6.28428833427889    9.53343002031931
H         0.76837610354233    6.77729204993629    8.34220597338411
H        -0.95621235239388    7.08089166524299    8.34337653833367
H         0.24627841750095    8.60282985716659    9.90946461921153
H         0.82766650805870    7.23038019741745   10.84243507052643
H        -0.89905782704977    7.60082409649669   10.78910041114747
H         1.21026659861364    5.04010111246766   11.04249260719683
H         0.80493410721396    3.37874842114607   10.59244489606982
H         3.07732757750569    3.76429762784301    9.76653977297381
H         2.59975701933768    5.28116307702032    9.00229208633382
H         1.98830242283020    3.75512706009230    8.36768032185427
H        -0.55544163706404    1.42799505388943   10.50204693317166
H        -2.23186380740718    1.53360836293542    9.97770634183639
H        -1.89523470102543   -0.58448403081214   11.14515929091126
H        -0.53352140984367   -1.01337269170218   10.11627472596524
H        -2.16573908283462   -0.95711141844383    9.44707178460037
H        -1.82143527542382    0.66467469235952    6.08261623003780
H        -2.60966728152572   -0.08161068091538    7.48837704914235
H        -4.05505869983103    1.68745105737374    6.33969840270664
H        -2.79173688185062    2.87943250455925    6.69555842871804
H        -3.70459753380219    2.11273365986729    8.01833448553527
H         0.04677869778946   -0.85441226787058    7.85412484571846
H         0.67500740202598    0.23970116764529    6.61010025918361
H         2.50315278618711   -0.44339462577444    8.18052659200868
H         1.60754026343923    0.25109535881958    9.53372748810603
H         2.20808951823936    1.29433144111332    8.24141148935710

