69
CSD_code = LODKUK | q = 0 | S = 0 | Stoichiometry = C28H34N4O2Ti | MND = 6
Ti        3.99243655585246    3.89356752235000   10.35885867654778
O         2.96265233758394    2.54009426971863    9.88240210573483
O         4.45195810223453    2.91410034002768   11.74439965925562
N         5.77722816602126    3.62660718978065    9.42014104042659
N         3.70039075004183    4.75968588620125    8.50574332831139
N         4.85895973344255    5.58357110123160   11.19126055818747
N         2.39850288562494    4.97772618266781   11.01697004001489
C         5.99000200442031    4.37245722978734    8.35385136489191
C         7.16386424246862    4.28260131384694    7.57169672893753
H         7.77456377637971    3.41235730053558    7.77404433771114
C         7.65435046665163    5.11050460285504    6.58359918698252
H         8.59224153842234    4.79202407133793    6.14189136153264
C         7.15792107180912    6.31886491787585    6.12047432612144
H         7.77666432831899    6.86089177379155    5.41767014773830
C         5.93848390592180    6.89467958147992    6.44881775170433
H         5.74523221992687    7.86422532616845    6.00315907503278
C         4.90671017563626    6.37895591278768    7.20151115929285
H         4.02257360122324    7.00299604477902    7.24952120822683
C         4.82756276494259    5.20398472315074    7.98434822202624
C         2.44586419865488    5.28300698348187    8.01581548408559
H         2.46196100729325    5.37984045687478    6.92171074475225
H         1.66251767643645    4.57494704940734    8.29227481139977
H         2.20457947481926    6.26685045114538    8.44432009466583
C         6.84670264304030    2.79772425690199    9.93353055896200
H         6.55987977367590    2.47226959064225   10.93351387452354
H         7.79422100355666    3.35006731476633    9.99181644857610
H         7.00159889772499    1.90946407742114    9.30619605152305
C         4.05582563962121    6.62235586651245   11.06233006698728
C         4.52148882146739    7.92612481724403   10.77416200666439
H         5.55424047629317    7.96496919703747   10.44921358108115
C         3.86816632684815    9.13871568767624   10.76311765251628
H         4.46183554745402    9.98005025207969   10.42271001247849
C         2.58599132779632    9.44775699354776   11.19468292544752
H         2.31367245302966   10.49485931457406   11.19838379481895
C         1.62774785186838    8.55322898698987   11.64489930868244
H         0.71460688759031    8.99983709302970   12.02304728910457
C         1.63669869285855    7.17420301463390   11.62282271806751
H         0.73128993343715    6.71501155109620   11.99769752482027
C         2.63152026348850    6.26155309975776   11.20287854023365
C         1.03857331356221    4.48872105049761   11.08543986442511
H         1.02492819630473    3.47301525831722   10.68804489810670
H         0.35442336394104    5.11106523697575   10.49223240053548
H         0.67124163370704    4.47287170220879   12.12151041168283
C         6.27190971232134    5.81726381882391   11.38495387580752
H         6.70427304903793    4.91005108139759   11.81010467756634
H         6.79437548198527    6.05265890162513   10.44607057066335
H         6.43804305215539    6.64666842837332   12.08581457907787
C         3.06637847896240    1.35827351710138   10.58187184109181
H         2.05444050557500    0.98338712722527   10.84296733499169
C         3.73978808264162    0.28651969343737    9.74981440002866
C         4.51259629561870    0.64770945749270    8.65239684878548
H         4.58484831626431    1.70080213838952    8.39912990082427
C         5.14106155949903   -0.32009622657940    7.88827644150417
H         5.73930674982421   -0.02814187324741    7.03631772487827
C         4.99760314036930   -1.66058209152548    8.20484421971326
H         5.48809786546369   -2.41624675961299    7.60866942376723
C         4.20426108179454   -2.02914453059597    9.27873088172816
H         4.07109727851490   -3.07460554569121    9.51718558640345
C         3.57416181177853   -1.06312486628490   10.04219997807411
H         2.94391502096264   -1.35889739681255   10.86924651594584
C         3.84026824882469    1.69182616444925   11.93936786092877
C         4.87981056551106    0.62558515298313   12.33219294474352
H         4.39518509273549   -0.31018183502849   12.59584967459268
H         5.43580901666482    0.98918184635117   13.19505563686823
H         5.57587235699610    0.44416471780239   11.51682755879016
C         2.81552821165979    1.82641317758701   13.08347087091791
H         2.11570230591298    2.62310944554239   12.83696261956259
H         2.27586727810314    0.89467459835817   13.23902022292244
H         3.33702540945444    2.09402726525438   14.00094646701874

