40
CSD_code = LODMAT | q = 1 | S = 0 | Stoichiometry = C18H15N3O3Re(1+) | MND = 6
C         8.14704451844505   -2.16698795254635    3.33568570634628
C         9.24501841192023    0.35337982235378    3.75389343948608
C         7.97912898189563   -1.02639787538056    5.86069248845058
C         6.56091813322897   -0.56324613258631    1.00423438225712
H         6.47514455728892   -1.61292901263735    1.24765330046136
C         6.30235966886343   -0.14202057931088   -0.28790260261038
H         5.99829583596469   -0.85902993018594   -1.03309853406035
C         6.45403556549322    1.19873954286237   -0.60125428673141
H         6.26760187912177    1.56178253643925   -1.59948887264206
C         6.86966792367168    2.05638318115370    0.40488355791453
H         7.02340364106494    3.10647146561134    0.21584371406683
C         7.10208019146561    1.54745094064498    1.66924557284421
H         7.44647496094990    2.21061903326165    2.45244887843725
C         4.89099292665105   -2.25962809131946    3.65140546474478
H         5.44664013358746   -2.56367753555848    2.77570112484199
C         3.66614839057920   -2.84565706162935    3.91691933004875
H         3.26989047356069   -3.58585081964886    3.24089287978120
C         2.97691210274975   -2.47462197901984    5.05972131506716
H         2.02208041162002   -2.91395766663719    5.30127084425448
C         3.56073023113020   -1.53232061237500    5.89172450840173
H         3.07982985127092   -1.21827067657115    6.80394375604156
C         4.78811781389967   -0.99803540372066    5.54600043090657
H         5.25706700218051   -0.27615556837976    6.20259887642304
C         5.43024184486670    1.85141233707737    4.34124118131329
H         4.91494021565575    1.22595892737689    3.62103925649029
C         4.83891693874239    3.02732126823182    4.76566318929157
H         3.87302615034333    3.31103424500028    4.37967755601206
C         5.50780536274846    3.82034701127165    5.68470264454842
H         5.07622739166648    4.74379903756191    6.03689987737790
C         6.74657215890461    3.39204398302804    6.13677844811686
H         7.31006152746266    3.97007004431642    6.85080231283898
C         7.26346767207573    2.20095013204749    5.65945429043558
H         8.22889947331341    1.84822261164238    5.99990326617662
N         6.94188745889251    0.25814979324372    1.98511482197371
N         5.45221683342240   -1.33733877307952    4.43598669782340
N         6.62278818664389    1.43146738005638    4.77258937869811
O         8.50335037045473   -3.16296600033068    2.90871716041795
O        10.25726945464327    0.85031872714923    3.58629473055349
O         8.25455069058603   -1.34026706156107    6.92160445525260
Re        7.49659466297511   -0.46826328785301    4.05081545794779

