34
CSD_code = LODNEY | q = 0 | S = 0 | Stoichiometry = C11H16BrO3ReS2 | MND = 6
Br        0.61772596081262    5.95645989609799   11.04074621879862
C         3.78958267359312    5.18592866585454   11.19223477483984
C         2.08891930894087    3.46267167091829   12.57562890964334
C         3.32815024499083    2.56786772936410   10.24587908174046
C        -1.01105992011553    2.89994149328702   11.40992919009489
H        -0.50891463768875    3.40006828318264   12.23713227986048
H        -1.89600984632785    3.47270768224037   11.13762240841088
C        -1.31018084572482    1.44229887066831   11.72340469020815
H        -1.56763132285505    1.32869237881186   12.77603308295395
H        -2.15259986223781    1.09285046092074   11.12216747936013
C        -0.06023820075697    0.64839867997988   11.35819010013437
H         0.75672205548331    0.89948128501523   12.03977218936490
H        -0.23360739657998   -0.42687843736060   11.40166576454720
C         0.29475006274128    1.08776372774311    9.95065478633196
H        -0.41362911237273    0.70016723452481    9.21674357596386
H         1.30711615146119    0.82862939331588    9.65146029925926
C         3.92665349270179    4.44856495831049    7.51021311882293
H         4.57696818892842    4.05666246569854    8.29186460394060
H         3.74310019090373    3.67658040897585    6.76523315683892
C         4.47241797322142    5.73904627884957    6.92368147951350
H         3.97803976056346    5.95776952627801    5.97458763926163
H         5.54445529808755    5.65555465932323    6.74575765689462
C         4.14690151241743    6.82893855683723    7.93897334687137
H         4.36296455833086    7.82395891982036    7.55044328839432
H         4.73496516131339    6.67633671112106    8.84614363371477
C         2.66634929601706    6.69034208399378    8.24401960740237
H         2.04723245176843    7.11016873196383    7.45024805936045
H         2.37115489879164    7.12879736034659    9.19496641096911
O         4.68224251381660    5.87005895486228   11.41978931299668
O         1.96922699223016    3.09573997665243   13.65688478019956
O         3.96048501672968    1.65960322864164    9.93909759575193
Re        2.24607586118819    4.09101691862460   10.74182783363860
S         0.11697027736129    2.90660444411886    9.95816454486044
S         2.31450124226538    4.89300680101666    8.26673909905556

