97
CSD_code = LODSEC | q = 0 | S = 0 | Stoichiometry = C54H36N4O2Zn | MND = 4
Zn       -2.48044811928102    2.13101203700479   -8.71949670645296
N        -3.52362489286645    3.53361261524242   -7.70045152908403
N        -3.60239399607130    2.47094517829021  -10.36999955735124
N        -1.42199429515236    0.73434114994756   -9.74242340580123
N        -1.37395388295596    1.76017786348056   -7.06308636387993
C        -3.36340501602026    3.88887602954452   -6.39734229621652
C        -4.31817011896925    4.90349670184113   -6.04758895194868
H        -4.42016904083601    5.34724802692301   -5.07634252802486
C        -5.04049007878626    5.16135475554527   -7.16362994852291
H        -5.84253951614184    5.86283934518616   -7.29051605858993
C        -4.53716260712248    4.29541324723069   -8.18967317109374
C        -5.02813086753813    4.26350609941843   -9.49162080593491
C        -6.15840981102133    5.16399226086914   -9.83076027490284
C        -7.43677724298999    4.69690084862592   -9.61171698587155
H        -7.57278717570407    3.71238373867534   -9.18892982811200
C        -8.54022329731484    5.48271247441149   -9.92751612195362
H        -9.53585098643601    5.10979757704782   -9.73838161961672
C        -8.36288598142641    6.72369317378213  -10.48623305080138
H        -9.23375257655060    7.31105693560806  -10.72694278002555
C        -7.08092283393734    7.23627323656477  -10.73806410281054
C        -5.95770661105157    6.45035450828345  -10.37992907153009
C        -4.63347670272678    6.97128908122216  -10.57615887818892
C        -4.45178394022054    8.23383450280351  -11.07121192501365
C        -5.56630293479034    9.01844470335560  -11.50898636841388
C        -6.88010223628514    8.52537324738302  -11.35358437150702
C        -7.93529814211891    9.32944195039625  -11.81434088051830
H        -8.95337138582754    8.98391790330449  -11.73305316461590
C        -7.70613691534076   10.55766989044074  -12.38458079661926
H        -8.53825501146835   11.15216149561059  -12.73229939720671
C        -6.40538587646648   11.04237068577996  -12.51892328548363
H        -6.23324247149981   12.01039698574438  -12.96538372828936
C        -5.35168799835158   10.28004851500324  -12.08663194992759
H        -4.33531459473071   10.62740539957831  -12.19083124236924
C        -2.64156074758477    5.85390505701233  -11.20332063877361
H        -1.88469175728411    5.23775542036089  -10.71878173575455
H        -2.17772843571603    6.73850627801884  -11.64628017111823
H        -3.12978167092556    5.27236941477528  -11.99246519321859
C        -2.50430778271243    9.01007691039625   -9.99264745389161
H        -1.52234479327661    9.39058661200042  -10.26962952757252
H        -2.39333877083338    8.08979080646625   -9.41397434864631
H        -3.02571823060893    9.75494060292968   -9.38151415660466
C        -4.59466307392087    3.39317592693456  -10.48828157448111
C        -5.12503359461554    3.37314180275296  -11.82161001143294
H        -5.91539080185014    4.00510485357419  -12.17995409001826
C        -4.43460907860847    2.42654691795280  -12.50184000942993
H        -4.54324527997439    2.14038114204096  -13.52989772788411
C        -3.48524191399228    1.86582815429894  -11.58223995922850
C        -2.55631216896645    0.87962090358606  -11.91466460331683
C        -2.58739489484896    0.34810603074846  -13.29542272850025
C        -3.68551518973770   -0.37735476229633  -13.74671453643743
H        -4.51255022548031   -0.55628642702348  -13.07483955849054
C        -3.71426214988012   -0.87469407590276  -15.03699773925524
H        -4.56993384460102   -1.44092462111469  -15.37526056417604
C        -2.65026051938762   -0.64839094009565  -15.89410033651252
H        -2.67453462329389   -1.03511749335331  -16.90221542817221
C        -1.55517688066665    0.07606063074075  -15.45379541837387
H        -0.72396933921584    0.25778825247709  -16.11960769649502
C        -1.52165121462285    0.56940881005347  -14.16207044520989
H        -0.67059730963566    1.13951442300803  -13.81816417903130
C        -1.59843483176824    0.36812859441535  -11.04207980809890
C        -0.65480321611737   -0.65717732128309  -11.39099986676554
H        -0.58583338803118   -1.13281671720244  -12.34982947145878
C         0.09475006449300   -0.89111102318587  -10.28896489773595
H         0.90782707903319   -1.58163089293234  -10.17785561391147
C        -0.39976363003271   -0.02173465819191   -9.25778261981921
C         0.11674673796764    0.03101848950040   -7.96426649265773
C         1.24206914487516   -0.87376857333019   -7.63729382470533
C         1.05667349955864   -2.25242113673493   -7.61559702234428
H         0.07881430628520   -2.65744071883616   -7.83291665754991
C         2.10892322578741   -3.09593352821581   -7.30836629971662
H         1.95257438471315   -4.16479704970084   -7.29052927541838
C         3.35964998697340   -2.57366262590691   -7.02414466736275
H         4.18127520386986   -3.23319827822485   -6.78660165792562
C         3.55279734160887   -1.20250666017288   -7.04540516117042
H         4.52709795842742   -0.79030131181638   -6.82612043658077
C         2.50072252459094   -0.35683449772757   -7.34722380707986
H         2.65013239876829    0.71308611335038   -7.36868044792539
C        -0.35188013588950    0.86899179144292   -6.95353673453935
C         0.17157711053900    0.88992600309980   -5.61611310304031
H         0.97342674303590    0.27495994356302   -5.25668904943070
C        -0.54298573651842    1.81241914160502   -4.93064021315965
H        -0.42599104700515    2.11085291264063   -3.90711148805574
C        -1.51427506685160    2.34841873186469   -5.84314394643524
C        -2.43423602268777    3.34169508699446   -5.51270691890223
C        -2.42414009495928    3.85161429905172   -4.12325907036999
C        -2.77627087698984    3.01916650349827   -3.06542064689722
H        -3.06465664679007    1.99820173581669   -3.27013415726190
C        -2.76851022259710    3.49498193680538   -1.76677552547169
H        -3.04774464208613    2.84079032632153   -0.95359214939761
C        -2.40384089010292    4.80568228441178   -1.50792697318833
H        -2.39540226112365    5.17567207929963   -0.49327403244585
C        -2.04997744813558    5.64000045034811   -2.55505636745832
H        -1.76257925410935    6.66265607429863   -2.35784641964537
C        -2.06251105206235    5.16800135137379   -3.85517346034834
H        -1.78181149816196    5.81579900360986   -4.67310186952874
O        -3.56673829578991    6.18891307581756  -10.18634915800735
O        -3.19540000246477    8.79537626984514  -11.20976970948640

