105
CSD_code = LODWIN | q = 0 | S = 0 | Stoichiometry = C34H61N7O2Zr | MND = 7
Zr        1.62855311095330    4.84176513625769   10.50464848727042
O         2.56431395275336    6.15442893624675    9.19436269421120
O         0.91985395284998    3.92207079829276   12.23408619574629
N        -1.05488868501640    2.82821363691354   12.55810622002485
N         2.98769740009516    3.31885465979503   10.11440662093288
N         1.78794362460421    6.92985859121032    7.18575524337713
N        -0.14335168202708    3.46407837483825   10.39829962211949
N         0.80963490000541    5.11777373468362    8.45373235983049
N         3.22191331855278    5.62633483855495   11.99886910310036
N         0.22407518453285    6.48569587109436   11.02305925272927
C         1.68239623056030    6.06514728432240    8.25163971827720
C        -0.51184493337461    3.10044310243628    7.98395255532462
C         2.03267055898232    7.79803871506054   11.84219017640914
H         2.57603529914940    8.73119859696457   11.87189423739961
C        -1.56189345769540    2.55500674028497    7.00937402706338
H        -2.48358110103968    3.13135120471031    7.06563689786666
H        -1.79312152340350    1.51720096332162    7.23970775028919
H        -1.19320771050494    2.60216834187834    5.98708782225388
C        -0.13446747445971    3.39449287251422   11.69968371187452
C        -2.43445837557411    2.54936128401623   12.19061428356533
H        -2.55962427674955    2.87558521616388   11.16257513786057
C        -0.22238754127088    4.57538748003090    7.60895679337812
H         0.06772162045724    4.58599088359695    6.54688777780631
H        -1.16312181169711    5.14187775521699    7.71761098112658
C         3.02411649525016    7.68706303232760    6.98689672242824
H         2.91838915273663    8.18381568554790    6.01769822561545
C        -0.69396969909237    2.60635799451285   13.95985596947271
H        -1.53409185416178    2.06393228336368   14.40286808636895
C        -1.08278328502214    2.98083882921201    9.41820681156973
H        -2.02356082626773    3.56001298171454    9.42422966283356
H        -1.33234190823876    1.91978387526844    9.58876187252348
C         0.91761744449100    7.69424843033614   11.06024740868966
C         0.78038469282699    2.29796062569459    7.87307837840956
H         0.60423761230798    1.25391417869694    8.12679754287391
H         1.49845178004623    2.73755247408139    8.57032858602402
H         1.17408184221682    2.34794252094583    6.85883190706879
C         2.98772499786209    1.98744194910755   10.68726358684696
H         2.48179395902099    1.25237807369926   10.02614346131828
H         2.46951633851514    1.97551643595359   11.65123033778059
C         0.66350941690364    7.24971786327703    6.31874985185783
H        -0.20419814248663    6.74600756585801    6.74082640954349
C        -1.54237674086032    7.54461276156262    9.77206288480275
H        -2.51838012340000    7.46782327566190    9.31781438033760
C        -0.81102220610830    8.75409656751518    9.71774970827335
H        -1.23080976552099    9.61068333111064    9.20474767752366
C         3.72799324230005    4.60652474885877   12.92240157632218
H         3.98447994511236    3.72858775968167   12.32660318301961
H         2.96476276915685    4.33562659618702   13.65332543545275
C         0.53883987032673    1.70900762975443   14.07827620601385
H         0.39248103414835    0.79404866876232   13.50866997259207
H         0.70740931325434    1.44988376757298   15.12111533878950
H         1.41287446394978    2.22523369301909   13.69282755145284
C        -0.96734241587254    6.47584854191471   10.41149382388798
H        -1.51597001579438    5.53866826586777   10.48841264005135
C         2.47351411705836    6.68667654381952   12.73340377392655
H         1.59123512907977    6.18897087555852   13.16662779036808
H         3.09612603003034    7.08797523079831   13.54600701184517
C        -0.50834620640539    3.90823467287903   14.74378795143455
H         0.29931383389880    4.48708948501406   14.30673038860714
H        -0.26969457945698    3.68019727917044   15.78039674569350
H        -1.41571797268623    4.50535267224416   14.71796263663396
C         4.45331437202069    6.17087068173869   11.41977383967680
H         4.25185349669214    7.13745660456675   10.95709953167083
H         4.80266999288476    5.47630337061974   10.65272259222914
C         3.24529420088509    8.75665048549276    8.05888736369679
H         2.45816867765082    9.50428866092776    8.02538874518577
H         4.20216683731706    9.24791968094243    7.89634304428108
H         3.23840035034841    8.29035090290330    9.03926618526416
C         0.38990239008199    8.82737659634491   10.33810481832480
H         0.97026517574768    9.73928969001181   10.33975770621611
C         4.06953278248503    3.26559040329983    9.15716067972934
H         4.34812371811156    4.26477717379479    8.80974124180896
H         3.80744654610392    2.65711977762171    8.26311391524614
C         4.22999550865577    6.75177415223922    6.88982637889537
H         4.42148326440019    6.29772873010480    7.85716298067956
H         5.10805372099357    7.31312739375314    6.57810956853214
H         4.03899712319849    5.96502282215362    6.16325264222737
C        -2.74544047101902    1.04951304936544   12.25059385992687
H        -2.00909893492521    0.49493125745458   11.67394623027853
H        -3.73088072114326    0.86105135870000   11.83190680173107
H        -2.73321448555018    0.67783031234737   13.27194723125162
C        -3.43564077230991    3.35718768963683   13.02491976004666
H        -3.44808610066856    3.04363937102055   14.06525088669974
H        -4.43488833261504    3.21919852011082   12.61845123905182
H        -3.18748042472579    4.41473094946094   12.97903302211571
C         4.99794384062595    5.19379126268855   13.57335480173377
H         5.74597110482906    4.41907852021536   13.73547132908036
H         4.77332688884653    5.64072487140083   14.54197647416684
C         0.32792899860749    8.74415358571085    6.31294620676945
H         0.19590732778044    9.09244827443046    7.33322593651541
H        -0.60287777689005    8.89636306531193    5.77111970631136
H         1.10079108873995    9.33615045244937    5.83002394135943
C         0.89472668351958    6.74278351865587    4.88996275117007
H         1.68779195750983    7.30259584641796    4.40016288820039
H        -0.01452397410962    6.85509263271577    4.30467982436454
H         1.17690259874098    5.69256417782588    4.90041238796452
C         5.47595837699334    6.25350384132479   12.57067309735989
H         5.47545642539225    7.24692102449065   13.01873030754811
H         6.48488939440414    6.05407233496713   12.21324637474407
C         4.48069851560733    1.55588316235808   10.80800516979437
H         4.83233039053754    1.62441025633064   11.83783670567348
H         4.61300242943466    0.52543345184203   10.47926384161692
C         5.22329336623282    2.53876806573797    9.89189745826192
H         5.80313095720171    3.25295230245067   10.47853131332264
H         5.89760517156372    2.03642753311881    9.19945005118592

