99
CSD_code = LODXEI | q = 0 | S = 0 | Stoichiometry = C38H54CrN2O4 | MND = 6
Cr        7.46003563191814   11.22438089838238   16.45981288743128
N         7.04892194268172   12.72845971166399   17.55421022444752
C         6.61796385501977   12.44069376010428   18.78174855640889
C         6.33739901622005   11.09002470471353   18.97897629911609
N         6.52223824862262   10.33316781598812   17.89557494633792
C         6.10351216673826    8.98714229209957   17.93673799966270
C         6.93357906903735    7.98937591439715   18.47166687877868
C         6.48167794267892    6.67665326098813   18.50282922625981
H         7.11608040937637    5.90491031108243   18.91203839467505
C         5.22830825846356    6.34148221971422   18.03510764658660
H         4.88613355041492    5.31760127204872   18.07793335931980
C         4.41092159248110    7.32692107398626   17.51600488790335
H         3.42903006987841    7.05600890630755   17.16244303052326
C         4.82656451637545    8.64879370300619   17.45356736446904
C         7.16277012561634   14.07455311827948   17.15833816771037
C         6.03055688079832   14.74025526952763   16.65617207888339
C         6.15595059780043   16.05612033269308   16.23437931473947
H         5.29111654565592   16.57827470885699   15.85411335914297
C         7.36635769118767   16.71782826090820   16.30257977456130
H         7.44500601881426   17.74316272279955   15.97113843261046
C         8.47067000796519   16.06314678187209   16.80986270941284
H         9.41076683724803   16.58998597935759   16.87851123195717
C         8.38792715121565   14.74869993073179   17.24786402241073
C         6.44961859279113   13.46257024613629   19.86974631868064
H         7.16122612831269   13.26815053923691   20.67277449453729
H         5.44985935309783   13.41465996227148   20.29999000662085
H         6.62171688099312   14.46415022500358   19.48395258002310
C         5.84473382642086   10.57502874722291   20.30269969892746
H         5.52546401178299    9.53963868467019   20.22112127757940
H         5.00993675394802   11.17270908958230   20.66714469904255
H         6.64093945782880   10.64470751083578   21.04424465097934
C         8.31076133151265    8.29626290777622   19.01558377749952
H         8.51151018681658    9.36254952662590   18.87469061657130
C         9.37010696890489    7.49727476686529   18.25142217605080
H         9.26627387434504    6.43136680412194   18.44227152150114
H        10.36720683545072    7.80215374716775   18.56200102714173
H         9.27247062120789    7.66811969132322   17.18266210184897
C         8.40590236556066    7.97527840333514   20.51022407866704
H         7.64879947806899    8.51119282137634   21.07538286782735
H         9.38549423610600    8.25975310677481   20.88926214455246
H         8.26932403786578    6.91048267166995   20.68573859430735
C         3.90708109670385    9.71498035427251   16.90238837489780
H         4.53895579930316   10.48952689787024   16.46200776404164
C         3.07646260390568   10.34702585025539   18.02410026494122
H         2.52524484246283    9.58174381469809   18.56872728308694
H         2.36253059339478   11.05358106294680   17.60507701384638
H         3.71438534948969   10.88071310788344   18.72034958947821
C         2.96954387369409    9.18439017777089   15.81642842331983
H         3.52344651645503    8.61451603319681   15.07488179812238
H         2.47781276307468   10.01673140736396   15.31718130850208
H         2.19095452940897    8.55101175015550   16.23687649983241
C         4.67926412916553   14.06386981454380   16.58767591757130
H         4.81669874895561   12.99716144721772   16.78988516693144
C         4.05602494964879   14.20824582775177   15.19739078745022
H         3.76046063187973   15.23628078451893   15.00085264636680
H         3.16719040155098   13.58485595838791   15.12384759203550
H         4.76442128314963   13.89976933340344   14.43255704822570
C         3.73329014358310   14.64358009456445   17.64318294041376
H         4.14415244667272   14.51926363673894   18.64065737695450
H         2.77078767176724   14.13792693210521   17.60134970131336
H         3.57217811735109   15.70577226752381   17.47007458381002
C         9.60625073658921   14.08226113626495   17.84059519598409
H         9.34245969304004   13.05179068435725   18.09173582743288
C        10.74560476242380   14.04558184808185   16.82099743017835
H        10.44896561740761   13.42655415402631   15.97898289502635
H        11.64174385660667   13.62497852828472   17.27137501245817
H        10.98392953058443   15.04265067370468   16.45743544426193
C        10.04463582656689   14.80135376003068   19.11963472677130
H        10.87868610135963   14.27492156817823   19.57976037910704
H         9.22771247912338   14.84379128198294   19.83639692113866
H        10.36235880336648   15.81923154145003   18.90426977239785
O         5.95711907056475   11.49483379377801   15.31741096014959
C         5.97033481343049   11.56910990229462   14.04569614799332
C         7.04490727424074   12.01395126856444   13.29376972214448
H         6.92269443617727   12.12722044939436   12.22740277483651
C         8.28120627543372   12.37678601032250   13.86465757287614
O         8.55520634049237   12.24057856227149   15.07536532355645
C         9.32655293228001   12.98990051073470   12.95488516224673
H         9.05924221470323   14.02456101538658   12.74473129942527
H         9.37854052414405   12.45002895494068   12.01315095305933
H        10.29778632121829   12.97284124711161   13.44269250929532
C         4.70104777582133   11.16938437977662   13.32447841194423
H         4.70587560024515   10.08841609823783   13.19228457574934
H         4.63210531112921   11.64121568253104   12.34896411873383
H         3.83479084477116   11.43000278660526   13.92520375876160
O         9.10409101933946   10.95308556287982   17.30828361293938
C        10.15962693725561   10.43794726540662   16.80798672187782
C        10.16863571659413    9.62257220353727   15.68666713761364
H        11.10435724383588    9.19116719038771   15.36455413314805
C         8.98981336230302    9.26090353415541   15.00598610763269
O         7.85419844077265    9.67919002403510   15.34049039704949
C         9.09241471449685    8.29233920182957   13.84506240318000
H         8.10522813133061    8.13048184020011   13.42002004595277
H         9.49931241296990    7.33942787860565   14.17930141736879
H         9.75341132895311    8.69561411809163   13.08067114291090
C        11.46749805449219   10.68321978355290   17.53350018324082
H        11.29018666906237   11.29814169789692   18.41160831831921
H        12.17260399424667   11.18601057313126   16.87580747051936
H        11.90944527378036    9.73741433328624   17.84156850588577

