96
CSD_code = LODXEK | q = 0 | S = 0 | Stoichiometry = C29H58N6O2Zr | MND = 6
Zr        2.05937014747813    4.26216044931885    6.36976482818142
O         0.03173853699882    3.93752452617498    6.03366542951812
O         4.19743087164138    4.38346652841666    6.27153986151183
N         3.27270300365975    4.18463806329701    8.23802736533090
N         2.00060747722384    6.10764643464434    5.43128589582459
N         2.23266898470493    2.70867285087428    5.01293920294823
N         0.60416451059203    3.80113223236685    8.14194712116070
N        -1.29674758085296    2.57904077326188    7.35581543891083
N         5.63702289835893    4.48676935480513    8.07683526848755
C         0.69762955282441    3.10514721686042    9.40410524548053
H        -0.00867400977485    2.26602443436712    9.46162459141405
H         0.47567738606281    3.80459781924047   10.22334194778849
C        -0.21856117557160    3.44572869986908    7.18849842750604
C         4.37035063638812    4.34455450987484    7.53892954109228
C         2.11653534041987    2.52453857353012    9.61797640186543
C         2.89841173308785    7.06714443515270    6.04545113562433
H         2.88315912559449    8.01893786252222    5.47473727602221
H         3.92335581171953    6.67725150654578    6.01121131397482
C         3.18719460404380    3.64125419423508    9.57027043664285
H         2.90458359119847    4.41732401554672   10.29994889764309
H         4.14656683919497    3.20337339788163    9.88489050457468
C         5.81352691141841    5.26930371243107    9.29371023483574
H         4.81349607940292    5.42497282547010    9.70313086301778
C         2.40008041819295    1.49408718247343    8.51950115853765
H         1.73318847674576    0.63944893832717    8.62766821046808
H         3.42881069870798    1.13987752827319    8.58988490798858
H         2.23918659702164    1.95279362223051    7.53109325283245
C        -2.29157132584681    2.89789668109881    8.37093049761650
H        -1.79432685381088    3.58150306999287    9.06639924226373
C        -1.64406742597425    1.70353620220175    6.23700782834347
H        -2.44228305683013    1.05082237965099    6.60807577122081
C         0.13300392383562    7.03928668989422    6.78468637099746
H        -0.86247748291326    7.48591530377884    6.70717228086477
H         0.06218758973318    6.10093133754909    7.35329280872022
C         2.16952242498228    1.85438428269260   10.99380374531971
H         2.00716085055716    2.58399148583651   11.78449252544880
H         3.13866936698039    1.38647430037828   11.15357157045910
H         1.40265669190842    1.08702691225637   11.07517368387363
C         0.68439696574040    6.71656824870863    5.37599412408659
H        -0.00663593928444    6.04150113385333    4.85583869312883
H         0.73324332567689    7.66503544827236    4.80246605740181
C         1.95268895249388    3.29448402005103    3.70888399094124
H         2.81313030349257    3.91231706145773    3.35947866598729
H         1.07019951473919    3.94449396721751    3.79286665257936
C         2.48998528923696    7.38228019938711    7.50443594413499
H         2.47427849141279    6.43861337327167    8.07496375527128
H         3.20463180615801    8.07263202358947    7.96410855434244
C         1.08835571215336    7.99094508473768    7.50303269354893
H         0.74746495485124    8.17669948068093    8.52624659751656
H         1.10994539715259    8.95192850574426    6.97884878256490
C        -2.14385545255761    2.40168437743554    4.96766065700649
H        -3.00417083541652    3.03196184404495    5.17143609319883
H        -2.43392427862348    1.64790480293279    4.23805326628008
H        -1.35143435220325    3.01657960321231    4.55209189545256
C         3.44378989308163    1.92116868707122    4.89761749026780
H         3.73044548141879    1.52941798494711    5.88420769579553
H         4.28639029373831    2.53175480470548    4.50245647422502
C         1.67778754636959    2.19978616226510    2.65785607830620
H         1.46064653762944    2.65622741388522    1.68965838239464
H         0.80426809381757    1.62640205481157    2.97502050272546
C        -2.74542658202678    1.65769726628973    9.14786688159483
H        -3.39359729063878    1.02921791249467    8.54264531199013
H        -3.30112717721629    1.96516448618136   10.03011427748801
H        -1.89058652579278    1.06542368388779    9.46482346898285
C         6.65869953386740    4.53183010288272   10.33718958789753
H         6.29788280372278    3.51570625490290   10.47544895940421
H         6.59914501101558    5.05319657331966   11.28911812078296
H         7.70364986404313    4.48657155179008   10.04101491277752
C         2.88276934915488    1.27015877049583    2.54961068061635
H         3.73481050727512    1.82775689699823    2.15143351723077
H         2.67026895616626    0.44513046903716    1.86390306600522
C        -0.41919468139849    0.84462142523611    5.91039608400834
H         0.40898536539326    1.48225804942266    5.57904812180087
H        -0.66380442435935    0.13519111791475    5.12265713298049
H        -0.10698545885122    0.28769204617764    6.79221476980630
C         3.23527670676386    0.73670154328092    3.93434588716242
H         4.13902129537431    0.12397274021814    3.88965613462148
H         2.41496470293722    0.12139397961242    4.31033765306172
C        -3.50723953850635    3.63871184514898    7.80086528229160
H        -3.17899044208278    4.48627383439610    7.20396006418155
H        -4.12705856485151    4.00507415241413    8.61632256192361
H        -4.11069872435145    2.97916875189209    7.18256310743611
C         6.40017263956755    6.65781826270608    9.01464987817552
H         7.43030170241461    6.59236931195070    8.67431144075270
H         6.37988220306672    7.24852280116964    9.92771656756092
H         5.80764492509891    7.16735883048839    8.25847133915858
C         6.81184357633746    4.22500560612822    7.24611328706089
H         7.67868793662442    4.37131950135317    7.89857119651243
C         6.79094359338151    2.76188592636446    6.80326517713061
H         6.70777891604789    2.10666404638155    7.66817889364866
H         7.70502835209444    2.51893009948484    6.26697282807268
H         5.94058539249805    2.59168579938472    6.14960840832809
C         6.96048980086046    5.14895841009894    6.03375047523807
H         6.11509032103653    5.01836599968298    5.36490878268582
H         7.87877801496625    4.90157242815950    5.50517508710499
H         7.00672807001943    6.19106290703954    6.33714692306252

