45
CSD_code = LOFBUE | q = 0 | S = 0 | Stoichiometry = C13H21CdN3O7 | MND = 7
Cd        3.41109285471821    3.50130266547574    1.01981691009106
O         1.15052836042387    4.86711799521467    1.10941157292909
O         1.33723017542041    2.58176391116277   -0.55569958152607
O         5.50486884698734    3.61925668853966    0.74688902287141
O         2.24518939190401    2.15609668881171    2.34071680855096
O         3.64195482489906    3.47680349260111    3.25592674411480
O         2.50610747234219    2.12979821115072    4.45178478472691
O         3.68048227741219    4.46586155415265   -1.26392792460936
H         4.58250057555646    4.20458839727097   -1.02338711894664
H         3.28884664752768    3.68953883568945   -1.67756076971924
N         3.74905482025491    5.73581843617123    1.49818232884510
H         4.08611102039131    6.22309784858542    0.67191868520998
H         4.51844196552895    5.64305177572585    2.15448903625822
N         3.90864527690405    1.54662310630900   -0.08273265814478
N         2.79689316687925    2.57900601836048    3.37427280174877
C         2.62357745487824    6.43446549171509    2.09757108276757
H         2.80829664325820    7.50947642210240    2.24066386399599
H         2.41547292871018    5.97525911813479    3.06720071510615
C         1.40540632012440    6.25155820414029    1.19621371795816
H         0.53062835934724    6.77328019145038    1.61300762549452
H         1.61899254157411    6.65651134823046    0.19487273628994
C         0.18089964433961    4.52959802043140    0.14538636865340
H         0.45464038250652    4.95357511243538   -0.83162039252729
H        -0.80493491790003    4.91598508676904    0.44539760440552
C         0.13474766850221    3.01264599001387    0.04240680702141
H         0.04437469610468    2.58916200730590    1.05025757394706
H        -0.72650713818528    2.69978261088484   -0.56734511547880
C         1.51983985595695    1.18110120062693   -0.48233079549828
H         0.80260614504915    0.67332837264017   -1.14614544794924
H         1.36691363930111    0.83805770446665    0.54803600849035
C         2.95062324290098    0.86314515156010   -0.91575013539807
H         3.08802213924184    1.20645646557926   -1.94953407130974
H         3.09014612579235   -0.22910666644703   -0.88885646315710
C         4.76325550912082    0.83082252165884    0.56288344927613
H         4.70702331552662   -0.26595494025695    0.48380312570431
C         5.84080296316199    1.32855752530872    1.34688219907314
C         6.63307519373621    0.40801029003928    2.05769030159200
H         6.37879325831989   -0.64222551519097    1.99676825512710
C         7.69453058510946    0.81210378385744    2.82204152496772
H         8.28489567529810    0.09225572767959    3.36824954011888
C         8.00775932862018    2.17372014269743    2.89169666702886
H         8.84530574141207    2.49517201177891    3.49521810574855
C         7.26776368279293    3.09765838653393    2.20634547248060
H         7.50977385587940    4.14979837488791    2.25678712155325
C         6.15342748237005    2.72577423374130    1.40980191210293

