49
CSD_code = LOFCEP | q = 0 | S = 0 | Stoichiometry = C20H22N2O4Zn | MND = 4
Zn        1.10120435260697    6.26986683589883    8.44879593175428
O         1.96647076995815    4.65076188443388    8.12522334193577
O        -2.38259503598029    5.46204014569204   10.54864668910504
O        -1.23301633548014    5.35883838316875    7.69681932734851
O         2.11034728481341    7.77634324357053    8.92037849892419
N         0.43997642047450    5.77215264302508   10.24011340223312
N         0.73774577421743    6.94147359987016    6.61157246685704
C         2.00605782919186    3.61607016611108    8.88928167326700
C         2.69457740702090    2.46022879449566    8.43566358140877
H         3.16961304674790    2.52239377480535    7.46769297976051
C         2.76355813041995    1.31682299247996    9.18316472104530
H         3.29758190581357    0.45693270077372    8.80404977855235
C         2.14890121389040    1.24870851820630   10.43792771490826
H         2.20753845590418    0.34301349986654   11.02190493866463
C         1.47973045373756    2.34403650095046   10.91309132169982
H         1.00244996159192    2.30557746470798   11.88335266916678
C         1.38262466186123    3.53927422381307   10.17264790869044
C         0.66567897161201    4.61825870637145   10.76040716897020
H         0.27388617684876    4.42240483194908   11.76575349577028
C        -0.35917713523617    6.70475695221722   10.98899280521627
H         0.08574594297047    7.69716888632697   10.90075547933410
H        -0.41859414560973    6.41144708176231   12.04497852716627
C        -1.77843322862745    6.73844911242297   10.40914007538404
H        -2.37972896182071    7.46746736684987   10.96863046391798
H        -1.73369630429014    7.03698882391186    9.35949317400321
C        -2.89901342598646    4.88507030846213    9.38051699132877
H        -3.51974887468413    5.60774356069331    8.83262793353569
H        -3.53118997568626    4.06378472142691    9.72956557046486
C        -1.85566998649285    4.30849204442471    8.41067547557675
H        -1.11407897493675    3.71399086380880    8.95862071166466
H        -2.38128976211613    3.64994349430783    7.70454929544473
C        -0.68537959007916    4.97528162251251    6.45185245355737
H        -1.45357145374824    4.48253501445002    5.83746064065104
H         0.15696205422608    4.28938794850868    6.59505344881095
C        -0.20910690246777    6.24916915179870    5.76863131529170
H         0.23014016606111    6.00062561098771    4.79474462928722
H        -1.07863540542290    6.89976118092537    5.60567792103195
C         1.43016774321839    7.89111011437620    6.08030599773926
H         1.28461634461921    8.09753175014865    5.01250380819574
C         2.36412620666230    8.73051768936189    6.73535795272039
C         3.01776810823314    9.71474012211561    5.96358834365902
H         2.77798864198341    9.78001144315874    4.91044581475269
C         3.93011540751241   10.57332961345546    6.51072657002938
H         4.41802131019106   11.32002349519874    5.90301861529027
C         4.22895720143743   10.47409283185794    7.87568811119352
H         4.95108004366015   11.15023360658367    8.31117977480427
C         3.61768233271871    9.53404680231791    8.65691430569100
H         3.84465199248294    9.44938109892539    9.70905773208468
C         2.66245918597802    8.62321877651070    8.13015845210984

