49
CSD_code = LOFCIV | q = 0 | S = 0 | Stoichiometry = C18H23Br4N3Pt | MND = 6
Pt       10.80975354336098    3.15107999239287    4.11561203780098
Br       10.96691706846653    2.57841310991828    6.61647231302960
Br       13.33060474342773    2.65340791357866    4.21611577291047
Br        8.24661624562737    3.28785135894213    3.96376278925770
Br       10.61163898835276    3.37800992217306    1.56329640841584
N        10.36551155115082    5.95372357978239    5.30933922450269
N        11.90483465253379    6.00550972699007    3.75417132302201
N        10.56377609638673    1.05110852282925    3.80070803571284
C        11.04742820579717    5.19869963766798    4.41894100553752
C        10.78665489176322    7.26397181183802    5.21692074332869
C        11.77446677395625    7.29695082112770    4.22102163012075
C        12.40776925018238    8.49058113787615    3.88645609906759
H        13.16960043554598    8.54831146310025    3.12948978500429
C        12.03167402625220    9.63102118049427    4.56112116986681
H        12.50782756255202   10.56852543566937    4.31941468511345
C        11.04913407421813    9.59855770069127    5.54838771556138
H        10.77871943100737   10.51144675904550    6.05587453083786
C        10.41554087076061    8.42428887593488    5.89033406845002
H         9.66092892826519    8.43140267807263    6.65658888061959
C         9.68531014344521    0.35585031591080    4.51811756356384
H         9.10712884781513    0.88702510445036    5.26132259820043
C         9.49410375828479   -1.00280829458854    4.34326679702269
H         8.76839513761248   -1.51652828443398    4.95239087949774
C        10.24160519358538   -1.67009553795052    3.38764902538959
H        10.11595614785019   -2.72981969561079    3.22668458785784
C        11.15467268202812   -0.94151761719793    2.64420552952480
H        11.76463029227279   -1.40599780509935    1.88671006800016
C        11.28491912734629    0.41485442507434    2.88149664824616
H        11.99462567867399    0.99350106141845    2.30680340222901
C         9.33643224080419    5.53220862241498    6.25618514790193
H         9.19474225627904    4.46113890756420    6.12356337936267
C         9.79911356100981    5.74920774105838    7.69446113688068
H        10.75758078307896    5.26347883905242    7.85757381203521
H         9.07473928369354    5.29447273378605    8.36389368259854
H         9.89491955856081    6.79906459149130    7.94974122775027
C         8.00129487778826    6.20408930298935    5.94561317910046
H         8.00238582795149    7.26446733747314    6.17378489112546
H         7.22611920240403    5.72451443345087    6.53618531591805
H         7.75069157610637    6.07438042913651    4.89609411695088
C        12.85521083124105    5.65063184894445    2.70334744698442
H        12.75457009647167    4.58171462393585    2.52379939494519
C        14.28963535289846    5.89663182163960    3.16395634799393
H        14.96776302801238    5.47094173919068    2.43010811755451
H        14.46909675927957    5.39970365324026    4.11374079768030
H        14.51832261096947    6.95105302659703    3.27567205128790
C        12.51333552704206    6.35902663224290    1.39517489173106
H        11.47524074727829    6.17708214830705    1.12996845355137
H        13.13731225382433    5.94923266938322    0.60623768699767
H        12.67624927678544    7.43023359800354    1.44312360395816

