39
CSD_code = LOFDAO | q = 0 | S = 0 | Stoichiometry = C13H20N2NiO2S | MND = 7
Ni        1.55624204994958    2.94508886461054    3.49593906099174
S        -0.06087016833557    4.21302159715715    3.67534597812027
O        -1.25052656430206    3.37918708506288    3.76807144877773
N         1.55335671048506    3.14876923633678    6.43486567340546
C         1.19727290723455    2.44131126388343    5.34565878398902
O         0.13282826877201    5.14063021886035    4.78096383135688
C         2.49835925264912    4.23008391048520    6.41505658647548
H         3.04133763165462    4.18088305516962    5.46450616866601
H         3.19116697106626    4.15007681790712    7.25293214673494
H         1.96365425224568    5.18047662538784    6.45426877161510
C         0.83122188054545    2.74712603984936    7.51874990988267
H         0.95792560868204    3.18204500461835    8.48875878824399
C         2.57575507327390    3.67793437042151    1.76458056680208
H         2.59210288011636    4.64995532753479    1.29281449184316
N         0.24144048502760    1.58958772056017    5.76280126591778
C         0.00178510616323    1.76106956190657    7.09380938473297
H        -0.72362895289088    1.18221297065289    7.62765168093919
C        -0.47162327354212    0.69318260383169    4.89560410213387
H        -1.42001231802098    1.14812487895702    4.60309143127930
H        -0.64477918752909   -0.26064432272975    5.39285231855847
H         0.12735225469674    0.55007760231657    3.99121122143740
C         1.71735770648365    2.58344618601539    1.36515219144887
H         0.98640061990297    2.62695207139839    0.57133519747383
C         3.24348234912395    1.80488172668694    2.86277868973394
H         3.86223509104892    1.11333048121837    3.41338090688675
C        -1.60206124430851    6.07681399958717    2.48426599814319
H        -2.41468201417862    5.36492613785802    2.64213114305068
H        -1.45952671656344    6.62862565185070    3.41557273763285
C        -0.33905347071851    5.29637119337233    2.20143823448833
H         0.53614616232433    5.93511890229440    2.12114740696604
H        -0.43545770679059    4.64285654757069    1.33933236788904
C         3.55305024246762    3.17246764325129    2.63231815813384
H         4.42436357003559    3.69297050124080    2.99549000739345
C         2.16138395085431    1.42903428050825    2.00935021131580
H         1.82274591081258    0.42084705337968    1.83436616429488
C        -1.95604768476308    7.03702678449393    1.35288680746560
H        -2.11192589870263    6.49335431378765    0.42324467077585
H        -1.15676258178188    7.75921309173014    1.19902459232665
H        -2.86790915318877    7.57906300097452    1.59115090267107

