52
CSD_code = LOFHUL | q = 0 | S = 0 | Stoichiometry = C21H21CuN2O6S | MND = 5
Cu        3.59591766382775    5.74055097050024   19.49828513790245
O         4.75009002247647    6.33960280444553   18.32183196112837
S         6.24151542491432    6.31031213923779   18.59159319968758
O         6.59344461749398    6.98923096750027   19.80810756965272
O         6.91600876670013    6.72230954087448   17.39537470935566
C         6.49958894198670    4.55760245744439   18.84389818455994
C         7.32838462223272    3.75510986710675   18.09238692594887
H         7.90369187774913    4.20478952479467   17.29868195443856
C         7.40027097429675    2.39994781366233   18.38485876790373
H         8.04935181367725    1.75754875578655   17.80963288292735
C         6.63808554730984    1.86938494541591   19.41587516451935
H         6.69838011144857    0.81430136311838   19.63810087637505
C         5.79522864078983    2.67463887228615   20.16481250861593
H         5.18847972080291    2.26912961885195   20.95945683046447
C         5.72666599703886    4.03262627479637   19.87133298268454
N         4.90324959605837    4.92927606667099   20.56496714317730
C         5.24987156302615    5.36838073209510   21.74929457861806
H         6.06879065230577    4.80118497967406   22.19110948516606
C         4.82370162131613    6.47675339841282   22.48054725825169
C         5.31197022417683    6.62496634038495   23.83638872115376
C         5.80252430784146    5.54406566561536   24.58551266186543
H         5.78602856993220    4.54741341535688   24.17089250945414
C         6.27657848190723    5.71525510203063   25.86538454054329
H         6.64863958259003    4.86394090565499   26.41668803235032
C         6.27157579506596    6.97421670209988   26.46345889482004
H         6.65178326287265    7.09831970556212   27.46619500830067
C         5.76202306160485    8.04405050669753   25.77124698074370
H         5.72672986694453    9.02397620855590   26.22547088805684
C         5.26782944931450    7.88834120557728   24.46819076305625
C         4.14034883754520    8.83421982553004   22.55018661193718
H         3.67582953375026    9.66170934236716   22.03349518237055
C         4.12257494377053    7.56917908413388   21.86803315762290
C         4.69861242733013    8.98999103389572   23.76878558576345
H         4.70036868045439    9.95757261751304   24.25180560608066
O         3.51142560239361    7.50511946558756   20.75843549167145
O         2.45971192433298    4.66161713094311   20.29702835571354
C         1.18879987580867    5.16544013516948   20.17284063191389
H         1.02790325738944    6.00687400777932   20.86936245377474
H         0.48320951596522    4.36604763078496   20.43441755311087
C         0.98749751304012    5.66664140558448   18.74225957583846
H         0.00821590488078    6.13344973333383   18.58504418314075
H         1.12200189965418    4.84156755748999   18.03860014024924
C         2.18833720650846    7.30326241372610   17.28561290675648
H         2.67445412715483    6.65650970981960   16.55507437697780
H         1.17768379631774    7.55589056455533   16.94028615425013
C         3.01427924921042    8.59815387932836   17.47683532145367
H         4.07807753935844    8.35176732224124   17.44283259017475
H         2.78002892787132    9.29325620093495   16.66572807697807
N         2.07727878769751    6.62498961420783   18.57269672875587
H         1.92647654284867    7.38414490649513   19.25582102113339
O         2.68104656079765    9.24399428240370   18.67874698589728
H         3.19803656820989    8.85277528596218   19.40719418671177

