45
CSD_code = LOFHOG | q = 1 | S = 0 | Stoichiometry = C15H25ClN3Ru(1+) | MND = 9
Ru        2.61587398124385    2.69813562228424    7.52879266073287
N         1.38431193480324    5.44608278745663    7.02701320155813
C         4.63755567934811    1.55847575997263    7.68159877871151
C         4.85201918081744    2.96106718731947    7.73873792975427
H         5.57369819086490    3.40993856132562    7.06303304636084
C         3.35277096555707    3.17769429423205    9.67774807809823
C         3.72515057198683    1.00799421135261    8.59301126144472
H         3.56790641046382   -0.06517301445981    8.61147126154383
C         4.22874431020822    3.76071152840079    8.71271154861284
H         4.50276629471398    4.80678275969412    8.81309096008448
C         3.09610046260160    1.80040438746122    9.58922555069939
H         2.49230310062601    1.31826499810266   10.35037969371739
Cl        2.73107466526404    2.99780481300504    5.19534408779854
N         1.07034447768618    1.30987812553246    6.79755392238240
N         0.04227436687226    4.21835901834492    8.17025162469380
C         1.24033126566365    4.21254439079174    7.54429190017400
C         2.81743543778252    4.00432166689960   10.80575967413224
H         2.53632447065651    4.99991548717248   10.46806399964306
H         3.59442976276477    4.11798853647264   11.56316765243137
H         1.95798719811845    3.53074860568504   11.27396236326858
C        -0.56051470127916    5.43948263513685    8.02939801014588
H        -1.52087883528069    5.65854672520200    8.44731553935228
C         0.28517087744197    6.20967440021788    7.30765271821862
H         0.19433467384056    7.22461848178921    6.98058374114707
C         5.42412584245583    0.69514022264006    6.72515953854501
H         6.01715116872878    1.35364382880850    6.08217087282407
C         2.50448436678837    5.95796222797799    6.28141287990470
H         2.79538318139246    6.93052345934266    6.67823307744561
H         2.23680355663016    6.06757217140003    5.22964754488734
H         3.33968992869200    5.26282724144755    6.35188660487568
C         4.50933600514453   -0.13622876940946    5.82284583994547
H         3.90907357360202   -0.83694548156244    6.40038401833267
H         5.11076420841431   -0.70831084795577    5.12207314579595
H         3.85756984457045    0.52091381752868    5.24877146704133
C         6.38343910064239   -0.20067541640443    7.51593361422159
H         7.02876543572697    0.39627061705797    8.15689343263173
H         7.00922798243982   -0.76329315733292    6.82896153458944
H         5.83754161733778   -0.90749963440330    8.13702438273609
C        -0.53836047310478    3.13912157138899    8.92444420451612
H        -1.34799055830027    2.66597819645353    8.36537227135599
H        -0.94702653690910    3.52489563584974    9.85833654107520
H         0.23465941291408    2.40392334594903    9.14978787737913
H         0.33279967330173    1.78013988154705    6.26647144139335
H         1.59258150035586    0.75570899041312    6.11150255133510
H         0.63606642641670    0.66667012987738    7.46012795445822

