47
CSD_code = LOFJIC | q = 0 | S = 0 | Stoichiometry = C12H20Cl2N8O4Pd | MND = 4
Pd        2.84281173667023   12.38731438030501    7.87193210379809
Cl        1.80671916080709   10.68451543848553    6.75200274769781
Cl        3.90154190746356   14.22330267689802    8.72956768349165
N         4.56064988095174   11.60869281108242    7.62268491842229
N         1.12412894359496   13.16327564775305    8.12855101825181
O        -3.05833280167951   14.95492649579634   11.16072533278410
N        -0.77896323391094   14.07359428590795    7.58841790838183
O         6.85143611596791    8.27103046197842    6.97018854544541
N         6.41475341610737   10.75835242473555    7.98073189957559
O         8.45834876146691    7.86464007267673    8.49148792653982
N         5.20734721632565   10.88396462859935    8.46768173291462
N         6.57614848355429   11.37783595026459    6.83128321740715
N        -0.81135503641417   13.51187084244209    8.77770398584627
O        -1.25591352039734   15.82722370931286   10.13504740317548
N         0.32615710040381   12.96385662195595    9.11900970466332
C         0.45141784270840   13.84870555365893    7.17727242099644
C         5.39710225636791   11.91910006815819    6.60717333445884
C         7.52889065338526    8.60003560929454    7.89897789409724
C        -1.94695829596559   13.56350038472890    9.63639015266960
H        -1.85268337896893   12.77983252717708   10.39043231281408
H        -2.85651863147948   13.41229143199603    9.05008821184986
C         7.43070518489161    9.96898872507938    8.59244451159305
H         7.17756488463503    9.82639244212425    9.64469689350063
H         8.39367053765316   10.47781805937544    8.50430126151474
C        -2.02657970041774   14.93388722169325   10.32960717449156
C         4.96406513699316   12.77115394792671    5.48114447435139
H         3.96635058422988   12.44659985823654    5.15888496839287
H         5.66914399884725   12.70207064650947    4.65852497977181
H         4.90583779348361   13.80792475604336    5.82752290884924
C         8.69652545754273    6.55599406345736    7.95058670852509
H         7.73692111499904    6.11094718346261    7.67089949389671
H         9.14558345824133    5.99438526004847    8.77135152238512
C         9.62429394755255    6.61652752471973    6.74736323565869
H         9.15504052378781    7.17566354022260    5.94168808119784
H         9.83142162218346    5.60880800502847    6.39985832666621
H        10.56089339619522    7.09878926225597    7.01623508795844
C        -3.29001344468825   16.17521932806710   11.88121864743349
H        -2.32587244257434   16.58757366967280   12.19355515899957
H        -3.87025733419680   15.87454918366891   12.75508671350464
C         1.08371113416941   14.21103237296258    5.89253324369088
H         2.09352709803324   14.59134156094014    6.09339883767739
H         0.49253723299137   14.96005678388850    5.37490129247062
H         1.15943381920800   13.31174163534202    5.27316345890572
C        -4.04839118205856   17.18353043444819   11.03251974012002
H        -3.44864885185689   17.47572305060994   10.17414222593893
H        -4.26284011236108   18.06669200555780   11.62683535484649
H        -4.98455243443213   16.75512745543819   10.68298524236768

