44
CSD_code = LOFKAT | q = 0 | S = 0 | Stoichiometry = C12H17CdN5O8S | MND = 6
Cd        3.21819908908879    3.25832326186674    1.93798779356953
S         4.51490228285034    4.82569833994579    0.34891570831846
C         6.07443833017364    4.78551002733119    0.93229973464103
N         7.16369077905468    5.28006583256607    0.26367702710304
H         7.11963696724998    5.72085061420042   -0.63963709419556
O         0.08459828257483    1.11514681043333    0.39889315384272
C         8.25110121586703    5.05510644482930    1.05908053812120
H         9.25365752363597    5.32984299873043    0.80597187848964
N         6.57345751502957    4.29983262726509    2.08460492007313
H         5.99852259114459    3.90917939028220    2.86677336055647
O         1.53165609184361    2.75194102918910    0.80088814968351
C         1.93717482848352    1.83461439807705    4.56640109693826
H         1.12648411322404    1.72165483336582    5.30195613151396
H         2.88709665911737    1.68611134541855    5.08655146153079
N         7.90519735019440    4.46653407435547    2.15214998550021
O         1.77644797668980    5.22585723165358    2.21142161291937
C         1.78368948975990    0.77113105094282    3.47573206896601
H         1.82017095432943   -0.22780653003110    3.93402735136999
H         0.80914879985806    0.87763251411753    2.99444311058902
N         2.80981177666226    0.91973606244573    2.44348918278664
O        -0.44376679901626    5.10554590363006    2.12302773760797
H        -0.34495670209856    5.70474907913770    1.36428263102476
C         2.28514192016969    0.50435702836457    1.14430548877326
H         1.85353489872241   -0.50610027558595    1.17651639959351
H         3.08074447681487    0.54061985506115    0.39626646185453
N         1.95964296380205    3.18087841819261    4.00186454255310
O         5.18695098365252    1.72272633068473    1.27471716776689
C         1.17978035390673    1.53718947560329    0.72136062770408
O         6.35802589404386    0.20254907769982    2.39678868691345
H         7.12355439259421    0.61686413335206    1.96527403126627
C         0.63632214814319    3.68221756531344    3.66903332939530
H         0.11718288806391    4.11718069435057    4.53874297444217
H         0.01135751780845    2.88153212133930    3.26724244108894
O         4.62372164767956    3.41746414503616    3.60356306639595
C         0.73623531780281    4.73662955523112    2.58563031098433
O         4.95286523649272    4.06861935047110    5.69800888234911
C         4.03946302134298    0.23541710190110    2.79726716264914
H         3.99708034326555   -0.84678372906525    2.59006281255308
H         4.24682429523072    0.36414800327136    3.86345985723122
C         5.22763115726978    0.81483337215757    2.06867587568737
C         2.70181442870102    4.08567168728212    4.87320420453844
H         2.40462741262261    3.99026962947348    5.92705610897953
H         2.53800806418308    5.11853069277089    4.55550255261832
C         4.23433152196615    3.84152842734846    4.74701947371626

