88
CSD_code = LOFLOI | q = 0 | S = 0 | Stoichiometry = C38H42O5P2W | MND = 6
W        -0.82789217126171    6.43976096085903   11.77351854531758
P        -0.74506903470764    4.45829801462096   10.27533418228574
P        -1.82526897119023    2.55991512057996   10.62835923011381
O         1.86879103298827    7.59292892476574   10.65539451959796
O         0.52508026748066    4.83617837327446   14.10745188763238
O        -3.51486486670655    5.42573311317432   13.04222554612668
O        -2.34839188412969    8.02302139789566    9.52723814503884
O        -0.92256822038271    8.94768355729749   13.63502632106987
C        -0.03082371129739    2.89835624490720   10.79192129993435
C         1.00986380824869    2.56261609661793   11.57001710743632
C         2.17367800806805    3.44884607486041   11.67028191601170
C         2.91085883253861    3.50676213801880   12.85360716388229
H         2.62460071455532    2.88713231562951   13.69076363815382
C         3.97938867100285    4.37403288413122   12.96770272017921
H         4.53269252754007    4.42157159727335   13.89397863862714
C         4.34265356647533    5.18106455064562   11.90128840498081
H         5.18069429033779    5.85558145834559   11.99274900741437
C         3.63160106656867    5.11414168984475   10.71525627599859
H         3.92009283038210    5.73030307063964    9.87644855004741
C         2.55086325191683    4.26002536515972   10.60184655926255
H         2.01799000264394    4.18343971365663    9.66427014380510
C         1.05641899765942    1.30118891401428   12.32691701540372
C         2.17289512476194    0.47158163551074   12.25760904586347
H         3.00723135779292    0.75410011989393   11.63152060830126
C         2.20573586478706   -0.71123416070784   12.97157597340076
H         3.07126987795255   -1.35411346379990   12.90474291970858
C         1.13537996291825   -1.07052532261447   13.77471352512356
H         1.16604193587688   -1.99291004432099   14.33548645389874
C         0.02974029206972   -0.24101487365877   13.86347481658729
H        -0.80130201938122   -0.51162588886055   14.49755047833111
C        -0.01251082278098    0.93718413685521   13.14180059174333
H        -0.86677792517741    1.59663640187659   13.22043332765540
C        -0.40111346262571    4.64814449516855    8.47103596639022
H         0.40187198764095    5.37856752366582    8.36386782560429
H        -1.29076119487043    5.03650367361264    7.97589110599802
H        -0.11652421961665    3.70242645403061    8.01211445686391
C        -2.08328803215556    2.09239897131100    8.85482312897513
C        -3.06658609640104    2.81347779640994    8.13387414841513
C        -2.91982735627700    2.90636093062070    6.75965121385021
H        -3.61098978827295    3.51092551725439    6.20032866965929
C        -1.89401387717763    2.27502532968708    6.06587327282779
C        -1.13805473729794    1.36011217909096    6.77365951423158
H        -0.42548144308738    0.74894033550449    6.24962216903464
C        -1.24751662272520    1.20670010281146    8.15373875180032
C        -4.32767211152753    3.41294304564953    8.76823736571251
C        -4.08128919111894    4.81100192543333    9.34620177115034
H        -5.02069859784367    5.23523720278696    9.69477670678784
H        -3.67155133006921    5.47382255288180    8.58587353007106
H        -3.39720163514379    4.78302696709554   10.19225825200695
C        -5.45375888482690    3.54613515907555    7.72672853669837
H        -5.58563966461812    2.62006274256014    7.17154871393820
H        -5.27042442420990    4.35965278476144    7.02913223749154
H        -6.38712911269389    3.76987812726230    8.23866219741075
C        -4.86843346972626    2.47816389361623    9.85786149382932
H        -4.22043614793412    2.44509693354867   10.73027240278502
H        -4.97720822431577    1.46822733068696    9.46720815658738
H        -5.84354307217423    2.82579248464043   10.19210993409495
C        -1.70574822201994    2.54884434248471    4.58369297658691
C        -1.47934259291612    4.05445804259216    4.38480720339669
H        -2.32401588290745    4.63478865916013    4.74583450431619
H        -1.34259102467525    4.27644606393277    3.32870192795579
H        -0.58934426304486    4.37627356750490    4.92235989903787
C        -2.96328762433405    2.10644945251112    3.82280893428094
H        -3.15352347641684    1.04874911309003    3.99353676324128
H        -2.82985315475879    2.26539536931023    2.75490808731772
H        -3.83810568551115    2.66584612162701    4.14260565614233
C        -0.50281730275203    1.80515851265652    3.99688078292287
H         0.41262367067225    2.06316741802833    4.52514791578509
H        -0.37835327262052    2.08382715534130    2.95251659856289
H        -0.64827861829924    0.72809495959374    4.03851026258762
C        -0.52144380305630    0.00728286514461    8.76119638458187
C        -0.76310791223593   -1.22124834245545    7.86099813655859
H        -0.42189201431007   -2.11753297386109    8.37417740689260
H        -0.22358138086945   -1.16245727265289    6.92057125311143
H        -1.82355749634286   -1.33209723755708    7.64511165282139
C         0.98692775411257    0.26748965110495    8.83867491007256
H         1.19849083297475    1.13995268501242    9.44925665055711
H         1.39732270750045    0.43842173013039    7.84544916727684
H         1.49209437033937   -0.59017843554461    9.27730567604482
C        -1.07412886403247   -0.37133604355086   10.13521153936344
H        -0.84880439318924    0.37313145401315   10.89139975821501
H        -0.62764352983761   -1.30657129145263   10.46809249077143
H        -2.15352268208028   -0.50491902064817   10.08323359868072
C         0.90191204914138    7.12549785836662   11.04499153273476
C         0.07975502395628    5.41321560838271   13.22830215134993
C        -2.55050667019936    5.78954862170070   12.55087866779891
C        -1.79083303654171    7.44391570113651   10.33987894468406
C        -0.89316545421587    8.02870108932770   12.95470248521671

