82
CSD_code = LOFMOJ | q = 0 | S = 0 | Stoichiometry = C37H35ClN5OPRuS | MND = 6
Ru       -2.08242420501700    9.12569022690234   18.90012020915354
P        -2.79042046365541    8.45320835013782   16.80675560449319
S        -1.33959561432310    9.78469310821631   20.95093916349843
Cl       -4.20204639404185    9.47229872017724   19.89039911167400
O         0.08637086034851   10.09636280136069   20.92801539215853
N        -0.25066118042825    8.84536598906147   18.39805787237544
N        -1.90440216508897    7.16609444714554   19.51183713389760
N        -0.42366537580756    5.44098603975821   19.52370403990435
N        -1.57278087624502   10.99286871241117   18.19113263575617
N        -0.26641075475986   11.03219753348634   17.81171688880297
C         0.48690240756816    9.86620131184106   17.96745846495160
C         1.84436348096208    9.70976331521425   17.72488350558212
H         2.45975839818956   10.52133447861108   17.38763259117457
C         2.41376075184870    8.46058861986620   17.95527677282017
H         3.46897696460207    8.32376153399142   17.77590623117670
C         1.64562007304696    7.41551891062034   18.42672630447115
H         2.05178979835268    6.44141654087538   18.63962870060974
C         0.29004008639963    7.64580559059926   18.65291831012208
C        -0.65077661183167    6.71059694481404   19.20377358671971
C        -2.52028559328174    6.11186035495302   20.09787847783407
C        -1.58719164991733    5.02627841461182   20.08676326551670
C        -1.94302098946439    3.78817029807365   20.62218648741129
H        -1.24225157717600    2.96776184379769   20.60600800384484
C        -3.19613520329372    3.66261085827649   21.17003798656402
H        -3.50095761922798    2.71608063792754   21.59407151582491
C        -4.09515764356218    4.73929092546784   21.21025149702548
H        -5.06086723158727    4.59285452439119   21.67337312235204
C        -3.77741154220880    5.96835257563519   20.68577769796756
H        -4.46568136181892    6.79923213929445   20.73219021395768
C         0.04821373099499   12.27654289116676   17.34988477176618
C        -1.09524279620893   13.03189533373716   17.45272027875688
H        -1.20998123240836   14.06096003741842   17.17972794638175
C        -2.08746920360129   12.19171857108259   17.98661131447411
C         1.36859944563579   12.70886048434464   16.82855456187845
H         1.27951190052598   13.72888216688347   16.46260641731416
H         1.69350035251694   12.07171989641651   16.00685239032758
H         2.12496371975129   12.69271288982239   17.61283011292294
C        -3.50073554152120   12.52457117866168   18.29235647100884
H        -3.94002930543609   11.74878111709692   18.91730380517986
H        -4.07669816545975   12.59266119429421   17.36992504079756
H        -3.56014402281079   13.48403982027271   18.80215946255325
C        -3.50294929544440    6.78744709291072   16.64521062986100
C        -3.23791499917685    5.90231067107580   15.60723289345494
H        -2.54237182022411    6.16653701267601   14.82328023280737
C        -3.87188143227787    4.67256052467928   15.58220596735748
H        -3.65776309760151    3.97786306060377   14.78273645680049
C        -4.77558856465395    4.32914111886867   16.57447014921165
H        -5.25548350072495    3.36183265702113   16.55267252766567
C        -5.07101131982644    5.22759531802775   17.58671194632367
H        -5.78438380223579    4.96725373379174   18.35380828795120
C        -4.44186407500074    6.45712027311843   17.61819349159282
H        -4.66401400322690    7.17872746251631   18.39306636666471
C        -4.06380752144187    9.35390246397150   15.85920519228690
C        -5.08136157957015    9.99599626109315   16.55537950810655
H        -5.06762138116079    9.99402296770921   17.63666436366989
C        -6.10447515926323   10.62013752484981   15.86241909527028
H        -6.89221266337933   11.12028766499607   16.40618080341978
C        -6.12051094665293   10.59915626143433   14.47796549167269
H        -6.91671760269497   11.08918961236020   13.93675996754378
C        -5.11944284371007    9.93775700744576   13.78333648754118
H        -5.13974220562853    9.90789866953123   12.70342632477855
C        -4.09703168184243    9.30826204553106   14.46819021732727
H        -3.32387464482699    8.78296454430845   13.92489221382886
C        -1.33722656131370    8.49688253297610   15.71234075415123
C        -0.43174689535082    7.43783413744944   15.70061308773714
H        -0.66448824451803    6.52869753568508   16.23852452497967
C         0.76637046740762    7.55528793919299   15.01967102529785
H         1.46123273948033    6.72871829783218   15.01294308436042
C         1.08033639859072    8.73155581196932   14.35847000259536
H         2.01689673645646    8.81974576942029   13.82790539010202
C         0.19520674599365    9.79738568021212   14.38594312109167
H         0.43966005544879   10.71883460664691   13.87647026597608
C        -1.00263842593908    9.68590250045493   15.06767305306167
H        -1.69059697063681   10.52140760200769   15.10299783832769
C        -2.15683445069526   11.24134319111731   21.68310383124388
H        -1.71071365289060   11.43159373872038   22.65207059038293
H        -3.21800229946643   11.03017159249510   21.75677497086119
H        -1.98316731595800   12.08133661638641   21.01762599123160
C        -1.63187868708693    8.63909693663537   22.33074393071199
H        -1.09950377541292    7.71729315730657   22.11752650679749
H        -2.69992139612471    8.45396632240836   22.37617036388949
H        -1.26048797845081    9.08519075316503   23.24586969113624

