52
CSD_code = LOFNUS | q = 0 | S = 0 | Stoichiometry = C21H16N9O2S3Y | MND = 8
Y         0.55094240889439    5.96690122945606   -2.50974420032589
S         2.24909919529592    2.04876388388521   -4.28381735481092
S        -2.41551976616136    6.60902478179902    1.17708144471446
S         4.13543525241195    9.02202941135921   -1.72242279641771
O         2.56425328769161    5.59237242532321   -4.54616379507171
H         2.74628661714631    4.64767668795779   -4.66811746731093
H         3.36700820631765    5.95760637794878   -4.14977839394813
O        -2.10990558804956    6.70633394077601   -2.95230911762890
H        -2.68687791693434    5.99262347788770   -2.64955581974758
H        -2.29089224493639    7.44842421174118   -2.36018530928266
N         0.34851945030571    7.46523704445423   -4.36858291418330
N         0.47300196651076    7.71814547912122   -6.69857611582544
N         0.81381787593004    9.56943434940416   -5.29598698498068
N        -0.48742486979335    4.93519918755827   -4.65577992230689
N         1.32491354122468   11.12016864438872   -7.43526622948021
N         0.19341783950825    8.56167688663872   -1.91775582120178
N         1.20130536169376    3.88960868937507   -2.50841088643405
N        -0.64877098037814    5.70838129341760   -0.74375204811441
N         2.45424057188691    6.84513572308202   -1.94645705332648
C         0.26439360849471    6.99074007477469   -5.61433889797295
C         0.77889928749208    9.00134385633581   -6.49507907991432
C         0.59524959560797    8.77525920595072   -4.26266572316912
C        -0.10754555417600    5.57655690295503   -5.76966338089286
C        -0.87345216141271    3.67185986251919   -4.77059528825699
H        -1.19921583941698    3.18838198126846   -3.85756345175040
C        -0.85980283005189    2.97639437484281   -5.97339759374105
H        -1.16360215210474    1.94239282494797   -6.00370575420213
C        -0.43467338271643    3.63219345617152   -7.11742179504175
H        -0.39272324204344    3.11870347257756   -8.06598208866780
C        -0.06654378273020    4.96356995298890   -7.01832643588781
H         0.26110526390229    5.53282746998661   -7.87256547110092
C         1.07215993858462    9.83403153189740   -7.66410725074760
C         1.59777553858454   11.89543634295240   -8.46152529470803
H         1.79654798442763   12.93174363453261   -8.22271033449436
C         1.63561521576891   11.44198212471441   -9.77698491277267
H         1.86550075120559   12.11917852907445  -10.58454206146349
C         1.37106121698965   10.10315143466445  -10.01773377291606
H         1.38953562581681    9.70938883742094  -11.02348338541409
C         1.08284670533051    9.27748675474899   -8.94414703463776
H         0.86993510245782    8.22886414339877   -9.06996249735741
C         0.61394229015656    9.35493225135958   -2.91427246432641
C         0.21554684713907    9.05541978822504   -0.68819629669143
H        -0.14088090198296    8.39831048591485    0.09528288113724
C         0.66374945148175   10.33777883616752   -0.39094517555863
H         0.67654587678976   10.67892460758104    0.63199314488655
C         1.09464877508401   11.15354929181263   -1.42392982738788
H         1.45818275684674   12.15063373992144   -1.22785564644386
C         1.06357104138412   10.65681719391068   -2.71697440471433
H         1.39015376472759   11.23250908182359   -3.56795370945082
C         1.65837397726387    3.08195595092981   -3.23702860637855
C        -1.38633296448737    6.08417876014768    0.10029873372266
C         3.17258198703725    7.77735951783045   -1.83583633800380

