39
CSD_code = LOFNUQ | q = 0 | S = 0 | Stoichiometry = C14H20ClNSi2Zr | MND = 12
Zr       27.76313373202238   20.29853881971186    0.62380983378373
Si       29.52069801834251   17.85641824670147    0.55092426445311
Si       26.18801822174667   17.73507465578594    0.58207534633598
Cl       27.77246412595698   20.53749669286539    2.95137868824159
N        27.83887660727133   18.22295997788522    0.57239413673741
C        29.99623973225781   19.63849516249344    0.02149621754362
C        30.15549484056724   20.67982975759945    0.97423630877529
H        30.61524581633246   20.57100409881960    1.95086519787842
C        29.70633345144902   21.89658371115355    0.41460221049487
H        29.81853938278405   22.88164171874525    0.85738399049612
C        29.27663439374038   21.62711981997927   -0.90906931895964
H        29.02500466347681   22.37530509166424   -1.65332722450937
C        29.43272860788275   20.24362454390831   -1.14070155139889
H        29.26341030102800   19.73771032099531   -2.08625150032199
C        25.57488172649502   19.47619128446892    0.05771175328819
C        25.35562616480458   20.50538100240331    1.01175740267438
H        24.92065915387413   20.36569067497209    1.99575827924344
C        25.70603606605252   21.75028957168285    0.44356091787073
H        25.52950060104969   22.72557550244383    0.88694152337748
C        26.13270041296699   21.50972249627584   -0.88663602295772
H        26.31716320809727   22.27246718179088   -1.63573464101088
C        26.07410666179609   20.11806156118861   -1.11410980785973
H        26.26484352257853   19.62357317848818   -2.06159962920336
C        30.21617785547063   17.51689458082920    2.30241595914872
H        29.75598317783840   18.19184720367037    3.02140923154705
H        31.29211317525016   17.64959058863944    2.35004184729431
H        29.99650607037187   16.50204360218311    2.61576635769321
C        30.05468439022810   16.51515459517288   -0.69765347167302
H        29.64986257661783   15.55460362405613   -0.40248459814509
H        31.13350667645709   16.42264041402346   -0.74056252108292
H        29.69507701958197   16.73166064065242   -1.69712878757127
C        25.73171365838769   16.35270062038331   -0.65227402789961
H        26.04977362867865   16.59395387076429   -1.66011016837741
H        24.66283224620187   16.17543473821121   -0.66985817841601
H        26.21764919131750   15.42780132276286   -0.36573525441632
C        25.54978004721701   17.35428932430263    2.34670090363631
H        25.84273542199758   16.35739549499770    2.65770401755854
H        24.46842730208996   17.41503089239259    2.41394012016322
H        25.97713814972089   18.06110341493605    3.05526219556752

