55
CSD_code = LOFPEC | q = 0 | S = 0 | Stoichiometry = C27H21NO4PRe | MND = 6
Re        2.76354797037150   -0.31252230559344    1.65599217143624
P         2.65366810008621    0.70502108447368    3.90994412019633
N         2.14216262677696    1.63079366260025    1.00357507624438
C         2.95569731598809   -0.87476573709193   -0.20293115872725
O         3.09766328424700   -1.17052610596391   -1.29716096123480
C         3.70307671034882   -1.90257128048950    2.28403078398541
O         4.32225023122461   -2.79944887188889    2.64147647208266
C         0.98512647915366   -1.08255360213600    1.81035968548642
O        -0.09356526731989   -1.46919386717036    1.90909002917542
O         4.67047163361150    0.87757536317603    1.47042414189931
C         4.48213284999406    2.06553890153270    1.11678394120930
C         3.18061364060861    2.52740660369677    0.83889490784564
C         2.65859012988265    3.75905940658104    0.39949399789136
H         3.22680500064377    4.64391878479375    0.18369447712978
C         1.29267878407716    3.58846487941931    0.30600820738445
H         0.56442962743026    4.31485645057092   -0.00036193282022
C         1.02374794456924    2.26700273946946    0.68737515465451
H         0.06739333981779    1.77633412845749    0.74135320601970
C         5.66247015734734    2.99145934141611    1.00938144958654
H         6.57469519658245    2.45271528050097    1.25466972557821
H         5.54176754468436    3.82752607007260    1.69661852443283
H         5.73292689786159    3.38756483632297   -0.00163100452749
C         4.18531019196676    1.50232810123001    4.49236470897331
C         5.36337450744096    0.79415624901796    4.26501147035071
H         5.32077676683414   -0.15760154226897    3.75042489007884
C         6.57706319714805    1.30898147175038    4.67791700743182
H         7.48696726168596    0.75821201797650    4.49085286688757
C         6.62448675891323    2.53305019907472    5.32582864604325
H         7.57288408108492    2.94289600409392    5.64047852450871
C         5.45377790390107    3.22964507684939    5.57419949901891
H         5.48748923275762    4.17838577624951    6.09028010861315
C         4.23426892684370    2.71852385817392    5.16427991160651
H         3.32673514633599    3.26886184230913    5.37086121358243
C         1.33845011904784    1.94630279874355    4.09673289939333
C         1.50845464208667    3.24575175261102    3.62628023682828
H         2.45771123369434    3.55195140419085    3.20737173017018
C         0.46162279006045    4.14714030164501    3.68004099611300
H         0.60457950413768    5.15375806371406    3.31569010468381
C        -0.76728216325568    3.75568678961468    4.18383485033319
H        -1.58504795899269    4.45997328899650    4.22044989168089
C        -0.95025032619752    2.45603879679089    4.62773426556751
H        -1.91229860044390    2.14377629730762    5.00636351359711
C         0.09370391726999    1.55128965697851    4.57987528328274
H        -0.05297848425233    0.53341985582713    4.91408546499871
C         2.31757866934466   -0.39159698437819    5.33178360212757
C         2.44280726843690    0.09998323121687    6.62828084907510
H         2.74920111619875    1.12444923820278    6.78939453775980
C         2.17664513717664   -0.72027274103471    7.70779774335304
H         2.27595829001743   -0.33503476472860    8.71205990872769
C         1.78392349257660   -2.03400749839266    7.50339076853267
H         1.57876346370339   -2.67271729947310    8.34953472189664
C         1.65521102140345   -2.52558164818286    6.21558251940825
H         1.34797266247985   -3.54763875848010    6.05268338832534
C         1.92133127964341   -1.70805320412145    5.13060104201499
H         1.82075875293631   -2.08641339458532    4.12055182004420

