61
CSD_code = LOFROQ | q = 0 | S = 0 | Stoichiometry = C24H18AgN7O11 | MND = 5
Ag        0.76061050914808    6.96400217314255    0.07472913823265
O         0.91317523715920   10.06145535996078    6.51953605304588
O         0.20775007783502    8.10027112879195    7.09376819508775
O         0.34918047033486    9.56950741644650    3.97420035067468
O        -0.23867916715359    7.93095823620181   -1.87629220048802
O         5.09797369149772    6.88423279365548   -5.62111043993667
O         3.20067150748550    7.08639545333175   -6.63755591336966
O         3.87252454981001    6.17652548159812   -3.37703054883539
O         0.85002734172130    5.37882961508502    1.86978430061687
O         2.65082538130564    7.85214995594168    1.39370171320772
O         2.52731017309375    8.54585381767186   -0.61677869333785
O         4.10555265049476    9.22624964834261    0.64970805599112
N         0.41305852807061    8.98437232542985    6.27982894785822
N        -0.17788752364900    9.15833543500200    0.48637771371660
N        -0.04087599070044    9.83065679164229   -0.66177063648776
H         0.36381749299866   10.76707579559372   -0.64588397109344
N         3.88986060870857    6.80869175263441   -5.67100283633913
N         2.52095013998680    5.32628660123887   -0.20454239477479
N         2.92146836414337    5.01539359823593    1.03322989010963
H         3.91803843246767    5.02470082771124    1.25151069494895
N         3.11896924492234    8.55783159106549    0.47973000263637
C         0.02815022963701    8.70433611001532    4.95143862960215
C        -0.64727242704034    7.61135101840611    4.44330348624402
H        -1.03699901499294    6.79306717738759    5.01457473466990
C        -0.72525523119770    7.82522193271772    3.06489609994301
H        -1.17662964581045    7.19010223000248    2.32769604870612
C        -0.09194028293318    9.03785006273611    2.82503031169840
C         0.11629890575778    9.73295694002920    1.59537366499970
H         0.53226012921585   10.74128171147045    1.64822944491930
C        -0.06787107822766    9.13866654403559   -1.84914992699713
C         0.11834687720076    9.96416931756537   -3.05660781116116
C         0.70720113511934    9.36302859480191   -4.16710674943151
H         0.99881978473167    8.32884178853023   -4.09002849505691
C         0.92795536636326   10.08463173444116   -5.32406523307107
H         1.39804963278263    9.61035520417000   -6.17221370127182
C         0.54269183096425   11.41445497677557   -5.38761052706365
H         0.71015947871626   11.98331389572197   -6.28950075428512
C        -0.06397977192092   12.01531062273007   -4.29499763666902
H        -0.37533608292962   13.04756121520763   -4.35213735589318
C        -0.27275519878249   11.30088223479047   -3.12959568583163
H        -0.77007283305730   11.77523698690941   -2.29591397519518
C         3.19757832881423    6.36622295733611   -4.52379632495227
C         1.85254580847078    6.09758768518059   -4.35721111835896
H         1.10350470756674    6.14584252917566   -5.12169271366394
C         1.70474219720809    5.73578470140703   -3.01587377029091
H         0.80165756337817    5.45974942786814   -2.50726206807830
C         2.97283613299055    5.80715288503171   -2.45383756897272
C         3.39738668263272    5.54160013090510   -1.11686189328275
H         4.47132379802721    5.53861911095054   -0.91877819802275
C         2.01502301546988    5.07371647760101    2.06492780274419
C         2.56075385073548    4.73968872243226    3.39332862575503
C         1.96785886208424    5.33447018102934    4.50508997466250
H         1.14282576150673    6.00763305008254    4.34167811156215
C         2.44379588542820    5.08102992503165    5.77681909207645
H         1.98425141063337    5.55974984047934    6.62824106493299
C         3.50939356818018    4.21198621438648    5.95042430744104
H         3.88491788601284    4.00818416869165    6.94163448610732
C         4.09161942187180    3.59797251226887    4.85184045301442
H         4.91272666897632    2.91088076347748    4.99125946878413
C         3.62811550180295    3.86070699212445    3.57582790886971
H         4.07499942483526    3.35462562742051    2.73229036925314

