31
CSD_code = LOGCOZ | q = 0 | S = 0 | Stoichiometry = C4H17Cl3N2O2RuS2 | MND = 6
Ru        3.84836254326248    2.00553997312049    1.26251247870058
Cl        5.08317628159927    3.97674376478282    1.50209302870792
Cl        3.15997337364976    2.05191202897509    3.48936807723259
Cl        4.81173424376855    1.65076215022612   -0.94410689501974
S         2.10959009419374    3.20657080918460    0.61515131981465
S         2.74280038691290    0.05164317662350    1.04594080947755
O         0.92271895690586    2.41319599757848    0.30653478505830
O         3.69285734711261   -1.08750477687837    1.28467081958224
N         5.65784841683115    1.05780660605438    1.95996524204624
H         6.33318665227685    1.83801159992078    1.93106021208580
H         5.55691095176259    0.73125379512141    2.92773393639321
N         5.97865305466052    0.01260360863392    1.04648735440209
H         6.89319133301950   -0.42842051881578    1.18284189881173
H         5.82410876912705    0.49781477784903    0.04410032649909
H         5.11165056978866   -0.67303112871517    1.11651324236819
C         2.43762239963467    4.27176734592625   -0.81718368794981
H         2.61739909316209    3.63115110452065   -1.67496342988830
H         3.32815787165819    4.84747445470745   -0.58401935568428
H         1.57911382369029    4.90807125860395   -0.99521868617638
C         1.62470747062707    4.48581980563717    1.79463994760927
H         2.48971893722543    5.12205260619708    1.95078818512376
H         1.36125892690613    3.98569079834138    2.72158752220753
H         0.77929852484631    5.03231605767762    1.39406651969742
C         1.98832281890575   -0.34177549097377   -0.55163887111686
H         1.19630135079715    0.37967921470434   -0.71568883803641
H         1.61523448833731   -1.35785751351120   -0.51625494537512
H         2.75924991898709   -0.24252325371389   -1.30931782016584
C         1.32647111144497   -0.29037648423867    2.10500102941861
H         0.53978690092244    0.39057708117516    1.79968397231107
H         1.63134119278848   -0.07768745365488    3.12518400874185
H         1.04395219511635   -1.32908139520577    1.98466781316828

