55
CSD_code = LOGCOB | q = 0 | S = 0 | Stoichiometry = C23H28AgBrN2 | MND = 2
Ag        6.51245990341458   12.29295574524835   11.21900736763612
Br        6.07093384960759   10.34370021150167    9.88817043869357
C         4.25394656360620   12.10588019729527   13.19337445602108
C         4.47667462758465   13.44717294650659   12.85539835348543
C         2.97012755461105   11.82805069740804   11.15662183771777
C         3.95811373849339   13.97568968337176   11.66597784935169
C         3.42210416694560   11.32769110318698   12.38200309075854
C         4.12561158450168   15.43471573022523   11.32457740832244
H         4.34922454213535   16.04025962312265   12.19723714437478
H         3.20822888966929   15.82384057793670   10.88786429210651
H         4.93439828243088   15.57857354715424   10.60586597410974
C         3.27966085080608   13.13653165080266   10.77609552937831
C         4.88452732578454   11.49516667931776   14.41966489334859
H         5.87784633119909   11.89959914931117   14.60208617333173
H         5.00273308679677   10.42392308860134   14.29159463126282
H         4.27050252194081   11.67152056889451   15.30455018388296
C         3.05564026466204    9.92813185153200   12.78563943461117
H         2.06643580284069    9.66776830606818   12.42224087784113
H         3.05234246300942    9.80956171450182   13.86498812133183
H         3.76390926718983    9.22036919978172   12.35365165226805
C         7.31173802612538   14.46656197046953    7.26615373655232
H         6.27981078966136   14.11770546654235    7.27120468361765
H         7.81967065333875   13.95729870992894    6.44823088533277
H         7.32833755871111   15.53877559727014    7.08344969973114
C         2.17376565210266   10.92344824280224   10.26230665137648
H         2.75127684362411   10.02647462848811   10.04563704436908
H         1.91373016836547   11.39534311145317    9.32345778516805
H         1.24607763216779   10.62608938530366   10.75102482946196
C         2.88235186863747   13.63666782450763    9.41289843768046
H         3.14929035390956   12.89937615817422    8.65889324984783
H         3.39496118530358   14.55788085667738    9.15854333928054
H         1.80772335252443   13.81344306744265    9.35881983270450
N         6.47911570955028   14.83182043271435   13.09993521383952
N         8.19271089908703   14.94388838440231   11.78354787281031
C         7.03698032151603   16.07120402362387   13.30658502272201
C         6.70644253669093   17.12685065650998   14.14382708548590
H         5.86913910965317   17.07312031772257   14.82267583695234
C         8.14231569511029   16.14945651721603   12.43978568207536
C         8.92883726182635   17.29040554773307   12.38006846148178
H         9.77274315724721   17.36152336387211   11.71168337290763
C         8.58741185004095   18.33772364889279   13.21314706635246
H         9.17690134509147   19.24153512610618   13.19484494649299
C         7.49869973884155   18.25661176714819   14.08026847220040
H         7.27095124123050   19.09762300944493   14.71714958407483
C         7.18154818453423   14.14016200937045   12.17808131188963
C         9.10911493383106   14.60928896023628   10.71585308764139
H         9.28048397480745   13.52777960148597   10.74483515718769
H        10.05336298396227   15.13134964345771   10.89102293689191
C         7.96231636294272   14.12244215025857    8.56010048030909
H         7.97890864165031   13.06146867360270    8.80240432588831
C         5.28360786937924   14.34945079600590   13.75980702500608
H         4.68193514342049   15.21713791764715   14.04928894762614
H         5.56467457920181   13.83676127062714   14.68227483095095
C         8.51317607634088   14.99379902340177    9.38980586119029
H         8.50816668241518   16.05342986771695    9.16507753304414

