40
CSD_code = LOGGUM | q = 0 | S = 0 | Stoichiometry = C17H13AgN4O5 | MND = 5
Ag       16.22566132979448    4.19578356468581   13.17934758339954
C        16.45027995648025    1.23839499548291   12.64002069058642
H        15.73075239243502    1.12381145141855   13.44237770302096
C        17.53692053203753    0.36038658098871   12.54025224891318
H        17.68619375656930   -0.39827972419382   13.29160781760196
C        18.38977878983884    0.49638907891416   11.47965448993704
H        19.24476643663660   -0.15136164275137   11.35438181999129
C        18.14420398253218    1.50246140593109   10.52239128779055
C        18.96959810763859    1.66283454551968    9.39168522905914
H        19.82460995664787    1.01331141314523    9.27938293640333
C        18.69118135187947    2.62894411817791    8.46428916276282
H        19.31842250701876    2.75034546013989    7.59424163110834
C        17.60217950046321    3.48143030300213    8.64982590898196
H        17.41231345551961    4.25377262500525    7.91814342014541
C        16.79051279679784    3.40106207863208    9.76872818871338
C        17.03826385047022    2.37316791976863   10.73146441446148
C        15.76886140823703    4.40859310896400    9.92402381003477
H        15.52829430782769    5.00026315129104    9.03141948286854
C        13.86305708965424    6.03278093329804   12.36100551207597
C        12.84171531490021    7.10532444818316   12.41443283891295
C        12.28480483706135    7.77190671777851   11.31163267466065
C        11.33093870036827    8.76217224686998   11.51940199497454
H        10.90820396377733    9.26926920074529   10.66152985805785
C        10.92063021725826    9.10439702772527   12.79338106861977
H        10.17877698091058    9.87683282431691   12.92542813359731
C        11.46493825981345    8.45532991608349   13.88986132297024
H        11.15288844048797    8.71680499992283   14.88833073754822
C        12.41070704683257    7.47247080094929   13.69245118137984
H        12.85247029702854    6.95129770749052   14.52766430382718
O        14.28855355595174    5.51671096760964   13.38980344408766
O        12.66629798480360    7.46405090664115   10.03685058470476
H        12.18472529660381    8.02312717779344    9.41255965934432
O        18.30667614848243    3.32427806382412   13.77739929141920
O        18.35947618719464    4.76498842436227   12.20547463105068
O        19.99905325483674    3.42936144887110   12.48566105163434
N        16.21339381059887    2.22084244456451   11.79599297891525
N        15.20932066905889    4.66294234107988   11.04019074386807
N        14.30100485856226    5.64813242469876   11.13354749093416
H        14.00192588219701    6.15309940040617   10.29875725189975
N        18.91284678481439    3.83646914270544   12.81720541971598

