100
CSD_code = LOGGAP | q = 0 | S = 0 | Stoichiometry = C50H46P2PtSi | MND = 4
Pt        3.09348894360668    2.05388875733677    0.15541378835385
Si        1.71974815104513   -4.81217086211142   -2.72315401385979
P         2.26054402678693    3.64576046627353   -1.24159159086051
P         4.03818276637472    0.65372932007413    1.67866530024445
C         2.33299940314647    0.44070769224821   -0.81193820981228
C         2.12420197353097   -0.67487803387032   -1.26298886255997
C         1.92965905620605   -1.92320600680697   -1.75103550958529
C         1.81139844249891   -3.06363494835432   -2.16119041782307
C         0.63168882329505    3.57014564575325   -2.06336861400785
C         0.00352444071385    4.70873273834535   -2.56130865244293
H         0.44867405436375    5.68386965494636   -2.41677366194903
C        -1.20265103561335    4.59628268591395   -3.22804823821836
H        -1.68636634618326    5.48276094754864   -3.61269163181537
C        -1.79091015400412    3.35382335174514   -3.40315809212767
H        -2.73363441776061    3.27300222510565   -3.92419003404367
C        -1.17134644858654    2.21983678951940   -2.90563446214874
H        -1.62776707821550    1.24973543835894   -3.03513774043746
C         0.03536121851387    2.32644469326649   -2.23798541255174
H         0.52682026164946    1.44523602956879   -1.84394338526526
C         2.31139297250587    5.35863928027266   -0.63270518793083
C         3.43476084919216    6.15802098910208   -0.80473082230644
H         4.26202573689954    5.80089335292630   -1.40194686411476
C         3.49730077057205    7.40130293620404   -0.20309943132391
H         4.37453594682535    8.01715035123823   -0.33734839374862
C         2.44590692312473    7.85197940788850    0.57676415958747
H         2.50036217046067    8.82147724080808    1.04990294893349
C         1.32627966572557    7.05596523832654    0.75743015858555
H         0.50830681176740    7.40372222440556    1.37165851153663
C         1.26191718254665    5.81103606520727    0.16279223012610
H         0.39749405356542    5.17595368143158    0.31107885909280
C         3.40049560571957    3.65850885892603   -2.65956003205503
C         4.49407762502924    2.80034451470817   -2.60759382783257
H         4.61475886486626    2.15635741297906   -1.73329221437461
C         5.40109162012489    2.76381684084833   -3.65031158225900
H         6.24971366714937    2.09688274871324   -3.60815572354944
C         5.21714781355435    3.58308311896983   -4.75231743533971
H         5.92283290033152    3.55596337647829   -5.56956813141194
C         4.12629000646946    4.43636466520749   -4.81025250993785
H         3.98407294628439    5.07195605876605   -5.67223007292739
C         3.21727622408552    4.47641527535080   -3.76888879737873
H         2.36557573337255    5.13990498333176   -3.81681449915478
C         5.61667561002369    1.06528751978341    2.48758354192707
C         6.80948626773422    0.45504781468422    2.11650612948575
H         6.80408775290123   -0.33850626734390    1.38215971076117
C         8.00213235829063    0.85706200131483    2.69178654496007
H         8.92547121482392    0.37702149553846    2.40113680127709
C         8.01477268365286    1.87330395878353    3.63207297819441
H         8.94842476632294    2.18886724732332    4.07407773136476
C         6.82841864275926    2.48561349761349    4.00359489377722
H         6.83336761908699    3.28165664540420    4.73332402553585
C         5.63494700458936    2.08732650934884    3.43409132709210
H         4.71113498585906    2.57111585547794    3.71788853215990
C         2.86998594721257    0.60340503475253    3.06365193690879
C         1.58104543915618    1.06674641927304    2.81871872361400
H         1.33472451980337    1.43620629768167    1.82100457712718
C         0.63591106952322    1.05794330558568    3.82788288559374
H        -0.36351160574857    1.42114379335171    3.63785291725100
C         0.97447729976138    0.58431436274928    5.08528430320259
H         0.23851359507968    0.57699359999312    5.87593314207304
C         2.25790978715190    0.12311092075073    5.33400185633032
H         2.51873488498087   -0.24346169347391    6.31636532769370
C         3.20772387071549    0.13248448843403    4.32856545948032
H         4.21353328449894   -0.21589008166267    4.52283702283463
C         4.26276760816635   -1.08539028668440    1.18709085553769
C         3.78866422354664   -2.16378408083406    1.91992974929374
H         3.27944804967760   -2.00178934059138    2.85910064224546
C         3.95338250034856   -3.45040361401479    1.43540840898856
H         3.57650045539015   -4.28721373701104    2.00527257625531
C         4.58506094623700   -3.66592596678707    0.22351599381495
H         4.70073188647738   -4.67106131049077   -0.15325563439947
C         5.05374678914154   -2.59170558208426   -0.51581598328763
H         5.52941487936638   -2.75722891009811   -1.47076149582895
C         4.88799463542300   -1.30709324720752   -0.03829721686635
H         5.21817073740337   -0.45547216677446   -0.62203470280091
C         3.94763963259986    3.59251353495362    1.19455741714786
C         5.25870216977894    4.00422561239081    0.96910814608742
H         5.87467194353086    3.48512414592928    0.24046090221912
C         5.81490297789236    5.06843791327116    1.65767825542163
H         6.83645533531797    5.36322945984306    1.45251509637604
C         5.08194511872210    5.75926355738410    2.61038330455300
C         3.77836299132993    5.35068595501904    2.85654287855538
H         3.18761538827812    5.87187389461309    3.59959833483519
C         3.22584304895456    4.29144892285231    2.16065254580910
H         2.19977277161505    4.00948022280751    2.37895083446191
C         5.66653000320782    6.93145221555794    3.34212998817886
H         5.33562383518330    6.94537534112189    4.37932618110875
H         5.34253353887188    7.86337154679777    2.87589195185687
H         6.75394194003667    6.90118081899661    3.31982090565290
C         1.36515808759454   -5.93218672533576   -1.21766155510421
H         1.36108047218428   -6.98440582549661   -1.48884945830865
H         0.39890416091131   -5.70083246645206   -0.77946429678849
H         2.11412213559273   -5.79168033985714   -0.44395737585782
C         0.33690442255107   -5.02385842704303   -4.02133938637088
H         0.25799900639793   -6.05368203839046   -4.35912178732465
H         0.52181751164438   -4.40444131686329   -4.89400786705676
H        -0.62829730852243   -4.73602725157078   -3.61527155026382
C         3.39603435807514   -5.30264546413941   -3.49758526514121
H         3.39438938519541   -6.33311983329383   -3.84231810576626
H         4.20436483088247   -5.19591297617053   -2.78036511052930
H         3.63090036431387   -4.67090016755874   -4.34910044698685

