144
CSD_code = LOGHIA | q = 1 | S = 0 | Stoichiometry = C70H62CuN2O7P2(1+) | MND = 4
C         0.52503708379897   25.89216692286257    5.42514456719319
C         1.74135543401055   25.82451115453845    6.13635977369329
H         2.64191732548147   25.54806053483409    5.61204718223316
C         1.77215858113336   26.16985198032751    7.45907782553049
H         2.69764911661689   26.16400803661497    8.01554514388854
C         0.58078916225242   26.55874842162656    8.10016640644524
C         0.53066940414660   26.95403703120884    9.46322208792308
H         1.45350493758867   26.97742203114691   10.02312836653309
C        -0.64687690422920   27.29098588411896   10.04566519406809
H        -0.68792709736574   27.59340163978602   11.08135133387875
C        -1.86091872565348   27.25342080654756    9.30907481198902
C        -3.10352845710591   27.60663975343874    9.86685404249147
H        -3.15240995154525   27.92333159234848   10.89831483140606
C        -4.22629334278965   27.56351093489714    9.08766415328069
H        -5.18064382316205   27.87202668460855    9.48202433382869
C        -4.13396189465407   27.14244395676071    7.74369194302915
C        -1.85317003454457   26.85592121372160    7.95481481474818
C        -0.60394558894404   26.51842077425079    7.33558043999931
C         0.54753283446477   25.77234384777435    3.96696801739489
C        -0.12489266638134   26.72495422779160    3.20493947480103
H        -0.74402994269493   27.44808667093713    3.71417728009166
C         0.04983681981591   26.80558465528037    1.83779204868226
H        -0.47997159187435   27.55445504055782    1.27110954195247
C         0.90141356900956   25.90776626598715    1.19875337856188
C         1.50678674276898   24.89269839014437    1.94664727668265
H         2.13074213916790   24.18093464067001    1.43003917927693
C         1.34376640473529   24.83383566724827    3.31154592276434
H         1.83511549512991   24.05736992158901    3.87903260074576
C         1.03923337452565   27.11099544111408   -0.87682411199375
H         1.89738104661401   27.14426951209627   -1.55596824532419
H         1.05733457191222   27.99568573532232   -0.23394030074422
C        -0.23274297832139   27.11609980636069   -1.72759980226084
H        -0.13500757857555   27.89822385408587   -2.49441853681376
H        -0.33019307303927   26.14560829108926   -2.23153301618410
C        -2.54385724061469   27.62542267489370   -1.63363799645020
H        -2.39677908588959   28.45071953754191   -2.34284550165820
H        -3.28239282643486   27.92614420883847   -0.88746277803512
C        -3.08973350960790   26.38908726667532   -2.36293618998100
H        -2.71480184963831   26.33376055274241   -3.39724023485355
H        -2.76185827033706   25.48211934801666   -1.83073112059343
C        -5.09835744349740   25.32378370048709   -2.92918350261816
H        -4.68247684679655   24.40788368426276   -2.48453343093001
H        -4.91636043521160   25.30277742352563   -4.01442168680438
C        -6.59712139718364   25.35762020604094   -2.66148480053948
H        -6.97348253741042   26.37661604640570   -2.82665606226799
H        -7.10663894342076   24.67583470588130   -3.35912082411914
C        -8.20035503590685   24.85933616078103   -1.01667749872412
H        -8.66420410166254   24.04811774262342   -1.59821874550595
H        -8.71827725262620   25.79934857476913   -1.25137969244995
C        -8.34671539172830   24.58405026326863    0.47541955516716
H        -9.27828780741476   24.03127463061347    0.66747174327698
H        -7.49962590843608   23.97184573347159    0.81401111691618
C        -8.38366588063203   25.67630806390206    2.55814661229482
H        -7.39376158321281   25.36221811940878    2.92806658249845
H        -9.11594638371279   24.91614806166692    2.86924998756042
C        -8.77222806504457   27.02703875205165    3.16766075263727
H        -8.11581641276620   27.81143837801684    2.77829269773778
H        -9.80068792769703   27.26755953362985    2.88969782367812
C        -7.60094932311889   27.02033765763074    5.25791099764794
C        -7.69916597979018   26.75863208242143    6.62924275088468
H        -8.67068044096455   26.52315933605151    7.03315483498364
C        -6.58767952572646   26.80383284394876    7.43642549323364
H        -6.69111373543356   26.57496868091832    8.48605583208089
C        -5.33059072899002   27.10297802426881    6.90219907064557
C        -5.24056837428305   27.36612834235128    5.53729646519720
H        -4.27888797464168   27.62241681816583    5.11864436032889
C        -6.35263221132161   27.32833887487016    4.72055185113112
H        -6.23593036153121   27.54634469198936    3.67161682633286
C        -3.98501120957044   26.60359992223189    2.32268222217731
C        -3.55507237707782   27.90898729384978    2.54406684845042
H        -2.80891245122530   28.09920759316522    3.30347252624600
C        -4.08188947032686   28.95497148764024    1.80906861181700
H        -3.74267406867184   29.96469599547690    1.98782284364585
C        -5.05302503703281   28.70576654474154    0.85140993884386
H        -5.47456713591912   29.52286596928478    0.28521338807336
C        -5.48124544166040   27.40786657564971    0.61991375493801
H        -6.22898964168974   27.19815874852805   -0.12633159120835
C        -4.94824293580805   26.36014979866436    1.34833965796062
H        -5.29619970611284   25.35918233929226    1.14819401523063
C        -4.68196981953616   24.11255252065851    3.53312103918172
C        -5.05039825651202   23.23388847924487    2.51819385722303
H        -4.51656126660812   23.23071090686753    1.57738467633893
C        -6.09187259523932   22.34483795618107    2.71817395884866
H        -6.37228966666041   21.66374072411874    1.92795280485504
C        -6.76678448087444   22.31588408413371    3.92763519215263
H        -7.57412018849577   21.61560439893136    4.07776461949303
C        -6.39559922771127   23.17775422919749    4.94610730361555
H        -6.90894869132485   23.15233593548464    5.89550608206465
C        -5.35628276446002   24.06708294335508    4.74800829308529
H        -5.04804420990595   24.74008016603601    5.53700376684358
C        -2.26073976647736   24.35067907898855    2.21584558482341
C        -1.98277018745031   24.66079168674694    0.89504010224200
H        -2.37369795267667   25.56883001987398    0.46256217358695
C        -1.20197918053876   23.79432900181014    0.14640016378644
H        -0.99030617229330   24.01784090206816   -0.88781618295608
C        -0.67136833102937   22.64966690017386    0.71559638723201
H        -0.05502710355391   21.98951182199159    0.12507149241074
C        -0.91904425338043   22.34339749383840    2.04508234053578
H        -0.49210335466888   21.46097307926434    2.49850857784738
C        -1.72454658683309   23.19242662858279    2.78168766455587
C        -2.69803246237435   21.91527598778949    4.55566275043516
C        -3.12561012478829   20.86065406298264    3.76872613217347
H        -2.91956351130802   20.84705488280684    2.70931070197079
C        -3.84313549526224   19.83123955459291    4.35612287665109
H        -4.17669387733403   19.00579471672063    3.74649477747663
C        -4.14066456006526   19.86092673966721    5.70657393603172
H        -4.70375418204925   19.05663150685836    6.15357999768030
C        -3.72748617780985   20.92682873376272    6.48834749636163
H        -3.98106557678303   20.95596534376768    7.53706803093189
C        -2.99147049146046   21.95601343607497    5.92318753381129
C        -3.30609021666576   23.26377477772795    8.36974478919688
C        -2.85226789948149   22.39172055199311    9.35730110764043
H        -1.95404746373312   21.81209165292420    9.19720027752276
C        -3.55237640198100   22.26078048242215   10.54222765405543
H        -3.19342344019387   21.58340077510706   11.30276595701471
C        -4.71305574818425   22.98847824657645   10.75420772941824
H        -5.25283299769341   22.88500960916876   11.68317938239195
C        -5.18234456165763   23.83833241585020    9.76765926523487
H        -6.09595369531536   24.39328275726504    9.92189267481709
C        -4.48314788375109   23.97251325001257    8.58135123370585
H        -4.85309701842081   24.62606351068635    7.80488762352651
C        -0.73631961058622   23.10718486632488    7.21150148891768
C        -0.22824345444883   23.61225963584411    8.40723103476552
H        -0.87472738253664   24.16904096956531    9.07308947437190
C         1.08989426661449   23.39098644335384    8.75867418625563
H         1.46232373234349   23.76884862995333    9.69944876957691
C         1.92806876586455   22.68682754698052    7.91030189012819
H         2.95691273578042   22.51225723618914    8.18590468695527
C         1.43801911798164   22.20509331044924    6.70837642509470
H         2.08739365483600   21.65526797994607    6.04279077973365
C         0.11591448962899   22.41284443546443    6.35878573042091
H        -0.25281055505517   22.02152387331157    5.42402926973622
N        -0.60900985709725   26.20198221295629    6.03088865493280
N        -2.97199522151479   26.78689176908824    7.21415154497329
O        -2.02251863742752   23.02103488944338    4.11525706740393
O         1.21598251361353   25.93014414367755   -0.12041119228060
O        -1.35760137007673   27.37999732866347   -0.91659623468027
O        -4.49322774397987   26.45969230195855   -2.35684002633541
O        -6.83105124599194   24.95179665694114   -1.33259618986698
O        -8.37288089814400   25.81594657149185    1.16126244215743
O        -8.76818783502680   26.97367725046301    4.57571264237354
P        -3.29091011334762   25.29332237065634    3.38872208381860
P        -2.46455873265696   23.49435269210498    6.75957251480303
Cu       -2.50444890074169   25.60891062053631    5.51013566625376

