72
CSD_code = LOGMUS | q = 0 | S = 0 | Stoichiometry = C23H42Cl2FeN2P2 | MND = 5
Fe        0.56480874130024    8.43266845360462    4.13330630793961
Cl       -1.15245864475945    8.67760988754559    2.86032411448484
Cl        2.33749616971141    7.35523629912775    4.75025303893132
N         0.50045926728970    9.84256764919422    5.46631480792501
C         1.49432780493331   10.75157293139761    5.57353890111137
C         1.46193121161621   11.78012737465073    6.48708908964119
H         2.29373134276879   12.46376127180348    6.52855104902217
C         0.37155803973318   11.92288129899058    7.36293513638920
C        -0.64586843344632   10.96190074869738    7.24059117275875
H        -1.52000651747143   11.00229977193114    7.86938766227745
C        -0.54728873054305    9.95386676669968    6.30676299180649
C         2.64083990186308   10.56454815848017    4.62959185371784
H         3.28580574780795    9.76426027962287    5.00806628437133
H         3.22728237118563   11.47200478206279    4.49362659207143
P         1.86103463868997    9.86523932833054    3.10006541801204
C         1.30814234527862   11.39498753651034    2.17064742408383
H         1.24988272168451   11.07872274926604    1.12116196312512
C         2.23409497566690   12.60581464482295    2.28812441380888
H         1.94572675177958   13.34744428546222    1.54383362154652
H         3.27846863341851   12.35864260688396    2.12928085864427
H         2.12849526676764   13.06558822910888    3.26900652440894
C        -0.09064067822976   11.79760461423489    2.63456768886805
H        -0.08090029553464   12.06029548103835    3.69215043765480
H        -0.79606771440661   10.98510361331199    2.49102139294713
H        -0.43622909277455   12.66249749758939    2.07001090798364
C         3.25651695698441    9.11903678791777    2.11423916420704
H         3.78967365218295    8.50295284834980    2.84970418153144
C         4.25424561221541   10.04696792283988    1.43545009459700
H         5.02285886625947    9.44707315654138    0.94870849355883
H         4.74687716787695   10.69318980028711    2.15925969335222
H         3.77357728192057   10.65553632478349    0.67251853547728
C         2.58337052977491    8.18624738043841    1.10549388550348
H         1.99240534434265    8.75185704196115    0.38521112224025
H         1.91418251603691    7.49583292840208    1.62797762865615
H         3.32358337350668    7.60100725264715    0.56264597058325
C        -1.60684285042634    8.90717203411678    6.16340965107299
H        -2.30181229347502    9.21214157126440    5.37347973592678
H        -2.15851157824279    8.75217244859673    7.09303009801771
P        -0.76821127286647    7.38075272881895    5.51431722303352
C        -2.23522304101164    6.38996720107220    4.91737521642609
H        -2.81785131177040    7.12709370153757    4.34966410127659
C        -3.11969294446519    5.80161367061027    6.00960649334647
H        -4.01651025449034    5.37871829413751    5.55850151428371
H        -3.42921757172276    6.56599686872956    6.72009373925333
H        -2.61044064852655    5.00581741290504    6.54844560872284
C        -1.75723586719589    5.32663863554179    3.92987397414783
H        -1.19309995454809    4.54009750362573    4.42606251681149
H        -1.11476686528515    5.78657193201076    3.17731876125853
H        -2.60602121512569    4.87180023379602    3.42146988036930
C        -0.22661736265363    6.57319379104302    7.10636403716292
H        -1.12444213242298    6.43060483575645    7.72309211802674
C         0.75167042572858    7.48041472278290    7.84693198181857
H         1.10318199803698    6.98403535789315    8.75065052737508
H         0.29100395812365    8.42377898369720    8.13341401903868
H         1.61247392001802    7.68780707744048    7.21527788509009
C         0.43362163502195    5.22749331088971    6.82271093247284
H         1.27278014097724    5.36844186227669    6.14511286454308
H        -0.26454110664024    4.52225962264596    6.37780565831616
H         0.81053777329835    4.79200997920232    7.74742457496827
N         0.30719436731749   12.92360725965136    8.26977858618060
C        -0.72194956084938   13.03274934722529    9.28284678911712
H        -1.67014583886053   13.35869522478417    8.83426024379372
H        -0.88437733056696   12.07186314556376    9.77898354974575
C        -0.18286386566226   14.08897602745255   10.24517247007311
H        -0.97765399056882   14.62251220966401   10.76128680706383
H         0.46516522840391   13.62181833717747   10.98752415794846
C         0.63941708566505   14.98925701806531    9.32734908674258
H         1.37784483109781   15.58030877831241    9.86412387723295
H        -0.01882097460469   15.66419761716456    8.77929680658613
C         1.28160835544601   13.99037816490111    8.36745607335668
H         1.47545260670405   14.43145453070923    7.38574223824564
H         2.22948038071873   13.61134085439933    8.77332777795827

