37
CSD_code = LOGRUU | q = 0 | S = 0 | Stoichiometry = C15H16Cl2N2OPd | MND = 4
Pd        3.83804575575922    9.65730963028473    4.62564878152910
Cl        2.22490861782530   10.55755148994207    5.87670978736419
Cl        3.29438352590225   11.04468939487048    2.95636084863711
O         5.50245540762276    7.65320475950857    5.92945353329550
N         4.41845178246732    8.50958193644157    6.29446378531476
N         5.36592769262424    8.90849883491478    3.47668638525645
C         6.56376696349485    8.51295835863266    5.55535564030008
H         7.49398789060305    8.01384122992946    5.84618817872742
C         6.32954905428924    9.82594055273237    6.35018925660680
H         7.17661087741781   10.07436449447609    6.98618136995774
H         6.13845147515985   10.66367340580145    5.66128957766754
C         5.06367627785872    9.51551120359314    7.17207320085260
H         4.39024446668615   10.38218811064202    7.22424642884968
C         6.55309398782983    8.68304420693779    4.04821523659150
C         7.70758645102688    8.50814109421514    3.30029975406753
H         8.65109655181456    8.34619624786280    3.79809770547173
C         7.62735903344429    8.54461470352942    1.91720056384755
H         8.51354028159587    8.42399359881756    1.31357161801030
C         6.38216054261549    8.71224015948041    1.33315093832880
H         6.26374793204494    8.71087180501454    0.26197551680865
C         5.27659378979063    8.89399264070601    2.14650056603034
H         4.29038947682285    9.05229311945252    1.72853443557937
C         5.32335740176180    9.01682480262900    8.57248909361891
C         6.31579734746895    8.08977074636061    8.86867006908541
H         6.95157720557611    7.69882817783412    8.09003481567105
C         6.49171347878374    7.64348946387401   10.16737030639741
H         7.26485918308187    6.92104924881420   10.38320056290383
C         5.68272039103108    8.11799915583592   11.18446534657397
H         5.82415846530384    7.76904332643355   12.19624288786891
C         4.69058729651625    9.04048528699110   10.89777967609563
H         4.05385259380855    9.41368057571149   11.68539453072420
C         4.51072859180139    9.48403474502062    9.60047558293989
H         3.73215892988842   10.19854906406982    9.37713754121533
C         3.38645420405268    7.69499878203629    6.90745073533824
H         3.01296274985012    6.99572560424079    6.15737425145304
H         2.57957163508192    8.35836790279480    7.22059188116410
H         3.77777269129624    7.13845213956832    7.76422960985461

