58
CSD_code = LOGTIN | q = 1 | S = 0 | Stoichiometry = C20H30IrN2O5(1+) | MND = 6
C         1.97998907545986    0.15795501506660    5.02387465601114
C         0.83031511984472    0.73841043043843    5.55335592557391
C         0.94045808805092    1.92647013294551    6.29354532670553
C         2.21020627204737    2.47999849043683    6.43249314985083
H         2.30443920719462    3.39217821330566    7.00342543902995
C         3.36420012934804    1.94387502690724    5.86456030082085
C         3.23238234815168    0.75334132500178    5.13439799531590
C        -0.25883515048677    2.57035586565478    6.90097821327608
H         0.00893063198832    3.48640653314319    7.41924746392335
H        -0.72996187569831    1.88842374275515    7.60686768238549
H        -0.99894008997156    2.79835097273935    6.13578297837394
C         4.68822846373087    2.60894166853127    6.02252640140934
H         4.59558688149504    3.54378633171720    6.56749460143171
H         5.13392329490209    2.80469264226868    5.04909958448485
H         5.37152164353452    1.95288487830098    6.55945076121947
C         4.21208325441857    0.00256097364617    4.38084311080421
C         6.11605267333637   -0.66053016612883    3.44736260874539
H         6.90536424299890   -1.15301882758827    4.01974430447568
H         6.55984994367998   -0.14577409382321    2.59154342851958
C         4.97912502097170   -1.63353358154957    3.03864076568713
C         5.22540085882851   -3.05107373024923    3.55343655853577
H         5.35642763231137   -3.04259360839146    4.63235782487494
H         6.11343974778411   -3.46970791600017    3.08778122464548
H         4.37035870059494   -3.67842176979327    3.31929359890467
C         4.74053603943458   -1.63747771827033    1.52869159841195
H         3.87768927911780   -2.25698721782558    1.29866815959221
H         5.60786098272806   -2.04004910053758    1.01263010892524
H         4.55192200301532   -0.62745667319296    1.17125933680132
C        -0.33775257480504   -0.02852109161172    5.18555135973225
C        -2.43143001957444   -0.75763195033048    5.01553868705742
H        -3.18473499558672   -0.25867901466974    4.40050704615909
H        -2.92797053396907   -1.28363408939125    5.83377214064880
C        -1.49824758933684   -1.68382248248458    4.19229988695525
C        -1.47759181729924   -3.10933607740239    4.74198176158335
H        -0.75727199475114   -3.70371849357548    4.18765692533778
H        -2.46141113524115   -3.56125135689339    4.64887343834548
H        -1.18193222037534   -3.10439320795308    5.78786101914496
C        -1.84956762350663   -1.68583782815196    2.70352064538520
H        -1.90796884765845   -0.66932814862591    2.31802524094799
H        -2.80825611648743   -2.17196808207447    2.54571832535132
H        -1.08795511501497   -2.23168860420703    2.15170370253070
C         1.53135364810360   -4.24155057614362    2.17348055672818
C         1.75107447577712   -5.14152184560168    3.33951377308099
H         2.60565555472131   -5.78560950649418    3.14152771771676
H         0.88606065873403   -5.79127587311356    3.46010264244873
H         1.91408880536240   -4.55611630267197    4.24035974858345
N         3.82702598707086   -1.05068360703370    3.72103622209705
N        -0.19457395029229   -1.05554499571917    4.39609186213577
O         5.49517433354903    0.31464512424463    4.28599997069311
O        -1.57547951451959    0.23887355870306    5.57565335758030
O         1.50481833675943   -3.02206032324723    2.20001330237492
O         1.35176673946866   -4.90208026595846    1.04221298451176
H         1.20796403557311   -4.32723831303386    0.27314589014476
Ir        1.79360262053648   -1.39490277275637    3.85938015953086
H         1.99250553903715   -2.31464873087026    5.04456295354117
O         1.52620816426032   -0.05192472308323    2.00664384748938
H         0.76936886704546    0.53781155542445    2.02783155929035
H         1.42542186353265   -0.63646981459344    1.25038016417354

