53
CSD_code = LOGTEJ | q = 0 | S = 0 | Stoichiometry = C24H20CdCl2N4O2 | MND = 6
Cd        0.08614014075105    2.80016709236776    7.40819734425217
Cl       -1.75915004814430    1.96100765224577    5.95073461072216
Cl        1.29135288900049    4.56260726334192    6.43347872588904
O        -1.74548875494275    0.51201009230744    8.54600460977032
N        -0.25298922761122    4.05141861250900    9.48901110933869
N        -1.35167124807597    1.73463278710837    8.98050893145352
O         0.73104124115486    0.67522916733082    5.04399657876139
N         2.19743496175877    2.03760073469152    8.51942928051602
N         1.26942513256452    1.09758662128613    6.22104477664008
C         0.11241536198682    5.31025987290156    9.64987170008082
C        -0.09776011686458    6.00339363081816   10.83525764400454
C        -0.72364519140749    5.34401976557709   11.88135999858470
C        -1.10492559675657    4.02269401063711   11.71374366576499
C        -0.84443238637017    3.39864000102182   10.49414278418815
C        -1.25323837482424    2.00743721639805   10.22538282571201
C        -1.52817666334173    1.08602514170727   11.34183066336362
C        -2.66614734231387    0.28355586621713   11.33486085489155
C        -2.90750526928758   -0.58734611803943   12.38139994961512
C        -2.01239690402833   -0.67841412369944   13.43416899720511
C        -0.87048769184902    0.10644034830508   13.43983445858838
C        -0.62942375038615    0.98797719034050   12.40308947122417
C         2.64667114125977    2.44642690135696    9.69222905876356
C         3.98992326337528    2.45976025652235   10.03618937950814
C         4.90874377029424    2.00830247419962    9.10183677580984
C         4.44863674493139    1.56999240074985    7.87402909667309
C         3.07795267851001    1.61042628592153    7.60775556330752
C         2.54567401805051    1.15757416542703    6.31679331716047
C         3.46891917698012    0.82416667505189    5.21239420185326
C         4.31534999744010    1.80780331450874    4.70661015000357
C         5.15094040465038    1.51890803513721    3.64362360445301
C         5.15392259580898    0.25109843232633    3.08467267702015
C         4.30789562705011   -0.72616446598362    3.58142107264045
C         3.46059236741559   -0.44178129857155    4.63703920727984
H        -1.84061654519019    0.66024128710575    7.56035268547451
H        -0.23931143891518    0.89619886528154    5.13611332495352
H         0.59755655832962    5.76794394361989    8.79590546578840
H         0.21653970073959    7.03024438308867   10.93078878839257
H        -0.91683895533561    5.85022509924137   12.81572700206351
H        -1.60816478483240    3.48557397794918   12.50277031130543
H        -3.36245641366070    0.35261089569552   10.51388012829446
H        -3.79620156461860   -1.20019493250469   12.37280053151407
H        -2.20082476557035   -1.36284851924276   14.24774961929989
H        -0.16608350732875    0.03130543232725   14.25518873946398
H         0.26815583723232    1.59058722788955   12.40228645343246
H         1.89474525212426    2.77996563537921   10.39561975164005
H         4.30461503913962    2.81277850299641   11.00545185704373
H         5.96489418002359    1.99618352709398    9.32677454827527
H         5.13291324297112    1.20040604962728    7.12661932332608
H         4.29079572870571    2.80001973159452    5.13329020704461
H         5.79958695130910    2.28648827672175    3.24821679704536
H         5.81002766081715    0.02780843102539    2.25638929350187
H         4.30233366742269   -1.71215424756188    3.14109989261135
H         2.79384120977281   -1.19843956952990    5.02213219447573

