111
CSD_code = LOGVIM | q = 0 | S = 0 | Stoichiometry = C44H48B2N8NiO8 | MND = 6
Ni       -0.22613853539884    6.49873600964414    6.34599363222527
O         0.69182041563225    4.12051824760379    1.50293327620745
O        -3.79275975991105    2.68732563224061    2.13258594092361
O        -1.33755304869169    8.36621158707115    7.19695916870761
O        -4.91484968092464    8.64956956049779   10.30321533073086
N         1.20135880606043    5.22205669976869    5.35933484271375
N         2.49680163938748    5.36952163804087    5.63651151642467
N         0.78400715367910    6.61673181979691    7.84557345573831
N         2.08019775691151    6.35434969749817    7.96418258741247
C         3.23378635583049    4.73784172506996    4.71940802326633
H         4.30379387217946    4.74276121150369    4.77479451835152
C         2.39028268529429    4.14399590632796    3.80618772241699
H         2.65043758047779    3.55108635611413    2.95566105877105
C         1.10398920035444    4.46195250052826    4.25088432439017
C        -0.35887482590197    3.81673047700366    2.31856230526355
C        -1.58523530329399    3.38199875981887    1.84829122087975
H        -1.78495554762784    3.26963557130234    0.79553440140458
C        -2.62626583660990    3.07500875800288    2.72528161984383
C        -2.41825668874021    3.17144189561296    4.09178452561404
H        -3.18555772020564    2.91594121403009    4.80277220075214
C        -1.19585998271220    3.62222703124780    4.55588667148985
H        -1.04020336016310    3.70381927715359    5.61936685507134
C        -0.16088286523194    3.97940984495539    3.70433035373853
C         0.52662631361732    3.99033233476007    0.11416678843937
H         1.47851518428145    4.28934629211151   -0.32350750986206
H        -0.26679955624417    4.64338911422856   -0.26569240465374
H         0.30699198590144    2.95656162507539   -0.17242603957138
C        -4.89954654245301    2.43367538625706    2.96385095661736
H        -5.72980253375428    2.21645729696459    2.29317023416961
H        -5.14528776779438    3.30455860486834    3.57959464594911
H        -4.72428659290870    1.56972709501829    3.61325093628357
C         2.46084510413159    6.56481263844214    9.22618035164402
H         3.47646310284005    6.41553260407631    9.53098951986490
C         1.37037513618673    6.98369943132740    9.95672089966345
H         1.34265729813974    7.25565958473220   10.99164460650036
C         0.31265831420044    7.00970822305071    9.04113118807983
C        -1.87498722306544    8.10107831495048    8.42804993626901
C        -3.14294446089025    8.50557758123261    8.80060719325318
H        -3.79684076829080    9.02884073912798    8.12425072779848
C        -3.64539239780614    8.21603865123124   10.06918940457890
C        -2.84622068755003    7.54319429059185   10.98212897554822
H        -3.19815071643976    7.30869534956350   11.97320477478872
C        -1.57042084638101    7.16241099831370   10.61113959021373
H        -0.95551180824621    6.63935827035255   11.32321362768022
C        -1.05800451268968    7.41287813472448    9.34558373100318
C        -1.98376772486706    9.33625895052771    6.39566526880399
H        -1.33435178755978    9.50584844990874    5.53864165972985
H        -2.11178465999750   10.27015443129669    6.95336554075016
H        -2.95520482350981    8.98464347038336    6.03935114381736
C        -5.50473348593165    8.34707397497435   11.54371387081176
H        -6.51577339723794    8.74866330519145   11.49573167519597
H        -4.96714869377800    8.82152650080456   12.37146438297314
H        -5.55149262765466    7.26667950313299   11.71211943653777
B         3.11885776116487    6.07525489712732    6.85085053606901
H         3.95245279512742    5.35515021968505    7.31395378648655
H         3.59648802805178    7.11922455464909    6.50141673368039
O         0.88557630605792    8.36494605079386    5.49364512288321
C         1.42212102015786    8.09920523443494    4.26229911959572
C         2.69014426593424    8.50274599395928    3.88894308427332
H         3.34488228771571    9.02541348397279    4.56494879805820
C         3.19150788435595    8.21295312073326    2.61998287789920
O         4.46115733966121    8.64546460813777    2.38514385302573
C         5.05000495253228    8.34250245471632    1.14426660033204
H         6.06160178696330    8.74273115111608    1.19183791536561
H         4.51262924102617    8.81789288083943    0.31691355864650
H         5.09523813865600    7.26209421233336    0.97555452753331
C         2.39112664548281    7.54101030671800    1.70743423716387
H         2.74210806641142    7.30660482055223    0.71600118713884
C         1.11534351559988    7.16103323246874    2.07929808827541
H         0.49940721672195    6.63879774920816    1.36750374783990
C         0.60409502399995    7.41150881812209    3.34531358204625
C        -0.76645852106228    7.00888437759300    3.65085735208829
N        -1.23691956118104    6.61618764744874    4.84683950611026
N        -1.65245859710100    5.22199862094165    7.33291825225293
N        -2.94820849552544    5.37086669252120    7.05797312566334
C        -3.68428305899233    4.74089129587977    7.97697706604663
H        -4.75438479431609    4.74709353399455    7.92353560310264
C        -2.83982299810443    4.14682859814238    8.88921113585353
H        -3.09914293955183    3.55505058538362    9.74078002488051
C        -1.55396242278799    4.46257766553255    8.44176224058607
C        -0.28848362822205    3.97887477364669    8.98589376117911
C        -0.08740732479955    3.81681956532546   10.37128024866064
O        -1.13580540759671    4.12233708017391   11.18921436225254
C        -0.96777141551197    3.99187989503155   12.57760737408800
H        -1.91857921528591    4.29133107495009   13.01733747836801
H        -0.17318226485502    4.64442504275132   12.95587052051567
H        -0.74809465350579    2.95797069018508   12.86354778162196
C         1.13964278835317    3.38120870126170   10.83892024394545
H         1.34176204968599    3.26939903153014   11.89127387599324
C         2.17837145165220    3.07284567193703    9.95968242804023
O         3.34584706177810    2.68433787080420   10.54987674676119
C         4.45070121665312    2.43009269122500    9.71621260651050
H         5.28232395533662    2.21256530218796   10.38509830204558
H         4.69544923050309    3.30084355988004    9.09988404334455
H         4.27365012918922    1.56617179346819    9.06725945157410
C         1.96724547712494    3.16860906337500    8.59360745354480
H         2.73259140748506    2.91184036409315    7.88097583198374
C         0.74416995277042    3.62021210605221    8.13212734413955
H         0.58597063212464    3.70113602244859    7.06898649791059
B        -3.57132326390110    6.07533000975760    5.84341286397310
N        -2.53334941987314    6.35440043804708    4.72938709750068
C        -2.91498409325188    6.56491025736714    3.46769007619877
H        -3.93095081579472    6.41613271422818    3.16378963934021
C        -1.82497420751286    6.98326252987078    2.73617526154523
H        -1.79806227234892    7.25509671058975    1.70120226640417
H        -4.40453628060792    5.35423875112177    5.38112714738915
H        -4.04953868091960    7.11914247777467    6.19251089690960
C         1.53222209104153    9.33558852623863    6.29388084614314
H         0.88310479023876    9.50603736055169    7.15096310576299
H         1.66021989117034   10.26895896422784    5.73529751910719
H         2.50370879724178    8.98413558486334    6.65021459912447

