56
CSD_code = LOGWAF | q = 0 | S = 0 | Stoichiometry = C22H26N2O5W | MND = 6
W         5.50673070979200   36.95914201208339    2.96787039927230
O         8.28892112910085   38.29821010618468    2.44219373066357
O         6.66018948575188   34.30678101416791    1.76340741653943
O         4.11618929760486   39.71642539392011    3.51063835401282
O         2.54622839178634   35.93799639320325    2.82681714167900
O         5.07882364826561   37.66688856051591   -0.04915381467776
N         5.81039492251988   37.46992595842963    6.13355260947190
N         4.96964775091680   35.49857442752959    5.78723009635935
C         5.59622181305555   36.53473199818302    5.17296066396846
C         4.69774046087992   35.80540083055069    7.10185159056540
C         5.24223750736944   37.08090641625827    7.32610621429906
C         5.07653705501819   37.72543261999490    8.54463039890586
C         4.37420731891740   37.05795693999512    9.52846029368535
C         3.83329191317900   35.79327995890733    9.30569985357496
C         3.97626380138906   35.15138856973539    8.09148890272125
C         6.57825469569682   38.67841357020828    5.97237577763459
C         8.06285185693564   38.56352132437857    6.40754970743564
C         8.81393530728190   39.72646417729042    5.75347584383045
C         8.21334368022423   38.66657208870620    7.92703332568390
C         8.65775205933716   37.23580320900911    5.93888716676819
C         4.68119413034040   34.21940355969897    5.19011898536942
C         5.74556487250267   33.12384042689214    5.46283485387051
C         7.15409322082980   33.70914121206114    5.36349752422949
C         5.56469663878077   32.49489596627190    6.84626716850724
C         5.55917237917839   32.04075234244215    4.39668507736311
C         7.31659158063570   37.77826984096136    2.75421580631913
C         6.27188677846312   35.23224403521398    2.31623545606346
C         4.66279742364108   38.71670547968058    3.39955042428000
C         3.63984004096621   36.24986706293392    2.95844178724523
C         5.24820120463541   37.40302375133100    1.05135456356940
H         5.45653735249317   38.71876150614440    8.71754157836388
H         4.22499689235550   37.53307450729350   10.48581593556007
H         3.27517082946912   35.31311514587542   10.09467296067787
H         3.51992803343363   34.19048770294245    7.91996490056908
H         6.09416019716785   39.47880284192237    6.53909345480425
H         6.55529056017753   38.94463072661315    4.91253053733561
H         9.84750745599327   39.74471670242330    6.08996816679946
H         8.81123801692032   39.62841804166418    4.67124771955516
H         8.35346179435872   40.67689648069103    6.01472141729723
H         9.26667146226275   38.62540742765434    8.19527614606072
H         7.81045950602741   39.60803959296041    8.29477637028002
H         7.70773135036690   37.84592784472947    8.43010139526530
H         9.73675502502134   37.24473485183241    6.07127691700731
H         8.25596076443612   36.40822282669450    6.51883974605474
H         8.44000652715943   37.05637208461786    4.88869844285169
H         4.61810545536318   34.36792381715861    4.10912819276603
H         3.70621324269961   33.87717498756001    5.54847968939888
H         7.88963857724411   32.90868227882083    5.35617251991257
H         7.27261602929595   34.29580596533464    4.45548063500189
H         7.36490660112465   34.34968579518271    6.21693441485372
H         6.29363643560047   31.69978765392699    6.98630433948950
H         5.71361037534130   33.22781270433041    7.63541538049181
H         4.57200950170151   32.06140134412152    6.94939480715520
H         6.22560153017991   31.20360642884973    4.58880740779946
H         4.53633092107678   31.67012377303560    4.40020065731207
H         5.78095448774400   32.43052772087581    3.40687894813096

