83
CSD_code = LOGWEJ | q = 0 | S = 0 | Stoichiometry = C40H34N2O4P2Pd | MND = 4
Pd        0.18862155964100    4.14429628297503   13.03735734426495
N         3.35324475511076    2.68864852320992   15.72218142062182
N         0.71218925360622    4.04863381122559   16.96007328051995
P         2.37555882093052    4.31305661154040   13.75127461042378
P        -0.97711254190694    4.31343298805629   15.00553431992551
O         1.97049955239706    5.09607194357886   10.41854787025184
O         1.33930346243455    3.40965871796788    9.05261589699006
O        -3.03435161895377    4.90505537628517   11.15355507419702
O        -3.13793066091792    2.66560177329838   11.43948941047848
C         0.13939096869029    3.89353771929499   11.04375439151777
C         1.18033575305651    4.06023907020251   10.05606983331906
C         3.01857768952390    5.41731395800949    9.52386941479540
C        -1.05448629364126    3.78443033705725   11.44998844030804
C        -2.48872527726164    3.68127060411192   11.34857777469889
C        -4.44847209850982    4.94443583718826   11.10550270148298
C         2.04464972596290    6.80082627326139   14.78348533229209
C         2.30125258657775    7.89446870679563   15.58903051542009
C         3.35738773633872    7.85161946852154   16.48451479938944
C         4.15428753178087    6.72039200714717   16.56892267696653
C         3.90880764352086    5.62716457472072   15.75756747447261
C         2.84551234516574    5.66587842116162   14.86314476651245
C         2.42074689322711    2.80451962137970   14.79201740355355
C         1.45946141009926    1.82204211847077   14.55010395054911
C         1.45080942416631    0.69949877345466   15.35732320208132
C         2.40627014476379    0.59462516556411   16.35807306996619
C         3.34052364518807    1.60990540852775   16.48584415668024
C         3.85980533222038    3.98694269830211   12.74810641995327
C         4.94993770610379    4.84256025269324   12.67303036959510
C         6.00398053751761    4.53852234634295   11.82780701453973
C         5.97156728417896    3.39125306998774   11.05319182361034
C         4.87521536021179    2.54287972930268   11.11400334375713
C         3.82099666291382    2.84312864870094   11.95338544089135
C        -3.46360639916825    5.64906312584808   15.39700422181465
C        -4.39384968306703    6.61466374427673   15.05391831460807
C        -4.13561340149435    7.49499893695841   14.01506372174616
C        -2.94559798711556    7.41088617618801   13.30879083359313
C        -2.01768709203901    6.44156728032605   13.63990403690369
C        -2.26997538356248    5.56069579472388   14.69052460224317
C        -1.87630348308314    2.87292954343312   15.64875056985882
C        -2.19716028888085    1.88536074557008   14.72143443514923
C        -2.89449174801768    0.75933170956332   15.11731589660845
C        -3.26285054754149    0.60860371218229   16.44446912358115
C        -2.93559803241462    1.58469342350030   17.37254972382695
C        -2.24557843224263    2.71750035475908   16.98020957775647
C        -0.16100358001781    4.94094781616660   16.50259450763692
C        -0.30142932386834    6.21157900962269   17.04771790266641
C         0.50613862959134    6.55309920884965   18.11876929043396
C         1.41543824484671    5.62322520354850   18.59781548360902
C         1.47491961335795    4.38088648779930   17.98197874918439
H         3.50128617336502    6.30542207927739    9.92497254751735
H         2.61935912827208    5.61278593579086    8.52512730784139
H         3.73355436515904    4.59265749450256    9.46425210745359
H        -4.71421988416046    5.93909728580321   10.75626838196073
H        -4.86406776411962    4.76950633371599   12.10150784073210
H        -4.82952035497116    4.18149383049710   10.42291314468000
H         1.21457217958100    6.80365296066240   14.07789903938783
H         1.68041414514418    8.77643370101492   15.52386471461659
H         3.56034809203693    8.70217532276260   17.11931851104268
H         4.97547572607386    6.69391138911773   17.27089004395548
H         4.51631568808290    4.73793041120934   15.82018477791932
H         0.73464507380505    1.95206866019887   13.73333916432009
H         0.71217518129812   -0.07666270150461   15.21576897284026
H         2.42927851399335   -0.25837996916457   17.01875024211968
H         4.12080752031743    1.56110556103811   17.23606713876963
H         4.97108073831423    5.74375753715627   13.26937160869703
H         6.85374149237863    5.20361390533157   11.77024388256005
H         6.79539128605219    3.16094038553249   10.39355694030668
H         4.84134656393806    1.65553845417045   10.49870763161272
H         2.94675495161836    2.20056497334971   11.99027790078362
H        -3.66572371322137    4.95448499854700   16.20077997004399
H        -5.32673710411475    6.67828076910173   15.59556257086297
H        -4.86868104018830    8.24294813410241   13.75001629307571
H        -2.75091507229849    8.09021295382390   12.49209690647563
H        -1.08627336383619    6.34166552323077   13.06564403918936
H        -1.90170317280200    2.01091208164665   13.68258559182508
H        -3.14858738702669    0.00088135029861   14.39192889946700
H        -3.80335623785374   -0.27232686123777   16.75893156996160
H        -3.22177447786975    1.46239922534188   18.40750390238213
H        -1.98515638069092    3.47533202888515   17.70618764539689
H        -1.02109178546096    6.90363591995099   16.63541624624025
H         0.43061597866475    7.53156493722383   18.57162333606555
H         2.06586081172363    5.85628543372392   19.42615705862841
H         2.16727772923024    3.61976684223853   18.31772953618384

