117
CSD_code = LOGYOV | q = 0 | S = 0 | Stoichiometry = C50H58N2O4P2Ru | MND = 6
Ru        9.52978631744815    2.42880193745050    3.79076248162306
P        10.79123897808084    2.89550553357247    1.96566414230706
P         7.44176026571413    2.87934414863089    3.05866501435799
O         9.57379820670627    4.28765325283180    4.81619068522201
O         8.63868926957253    2.52879947232035    5.72607071751773
O         9.80311493399843    0.28902101913741    3.76159450300773
O        11.17757838989018    1.60032910231854    4.84707808831414
N         9.00641143084539    4.34879656157590    7.01995275105658
N        11.33217968601360   -0.63330701161735    5.18026713392272
C        10.37614333665660    4.52050976199843    1.24232647812482
C         9.53024899369521    4.60297997757857    0.13861467055148
H         9.19574959856840    3.69984946038648   -0.35004645041698
C         9.11674432909928    5.83504929081258   -0.33500927016060
H         8.46130019729969    5.88399332236210   -1.19261878011577
C         9.53371503938065    6.99851460497837    0.29078035584788
H         9.20803443045258    7.95994710131609   -0.07922113691017
C        10.36873814192465    6.92325467486596    1.39392321149715
H        10.69366322381032    7.82787081667480    1.88764434812092
C        10.78585392389780    5.69324582459479    1.86979451950875
H        11.42943946330031    5.64079250728691    2.73453625631500
C        12.53611264267986    3.12590179869175    2.45975489626935
C        12.75118981869645    3.72154207370095    3.70106914826517
H        11.89521336421779    3.99856392984445    4.30223840713770
C        14.03527482448096    3.91816235650424    4.17150761943302
H        14.19272533190795    4.37981198030774    5.13606472603536
C        15.12024179946020    3.51153335464376    3.41097404586720
H        16.12586953054490    3.65728192878097    3.77871838830156
C        14.91293369486385    2.90502865203546    2.18389869068064
H        15.75735847163886    2.57639172073765    1.59452728356198
C        13.62784056077853    2.70893676791385    1.70677571356994
H        13.47991930948017    2.22443497471567    0.75238251838008
C        10.96700260864314    1.83525346986668    0.49083726164673
C        11.43900016249212    2.30465557790750   -0.73203094878846
H        11.69672149649455    3.34860474398019   -0.84529311787891
C        11.57763700699925    1.43508869301085   -1.79865547624518
H        11.94061118809568    1.80351876344809   -2.74762484787656
C        11.25812076323830    0.09415331878383   -1.65344468325343
H        11.36728335809490   -0.57917951402737   -2.49143955669065
C        10.80444013864602   -0.38135882761381   -0.43415920879695
H        10.56227190239290   -1.42804539449628   -0.31785978238224
C        10.66036164940559    0.48672356184458    0.63351069372792
H        10.30425114943090    0.13947661479398    1.59496645356676
C         7.03600261403051    2.86690303820833    1.28186643013476
C         7.52590662377078    1.75251606839073    0.60590413771214
H         8.09404034101844    1.02280766196298    1.17057897657795
C         7.30186456967041    1.59829287171522   -0.74771003886413
H         7.69708408399556    0.73841405728691   -1.26910305291362
C         6.57676286259919    2.55976684717918   -1.43646398309334
H         6.40485776678198    2.45011543506486   -2.49745573128003
C         6.07103911759539    3.65931261498771   -0.76396472208597
H         5.49779464269111    4.40192741445551   -1.30070567373691
C         6.29473658735249    3.81670183488514    0.59417958065835
H         5.89787597519494    4.67918451641920    1.11038563425572
C         6.76335122189999    4.45658711225361    3.66203520675895
C         7.24487172853776    5.63030939833510    3.08604834756424
H         7.97075885737543    5.56213256564734    2.28753233565987
C         6.80483210318741    6.85891354456469    3.53945826761297
H         7.17458936309860    7.76542808154459    3.08227155358312
C         5.89713526245970    6.92776904684284    4.58543224266481
H         5.55101889996598    7.88827333305766    4.93938833047945
C         5.44896158723843    5.76468132009019    5.18903197839431
H         4.75585535314560    5.81938421628112    6.01746816058325
C         5.88332800412935    4.53082788215979    4.73571740751483
H         5.53985665127143    3.62332572330698    5.21363458956847
C         6.18307780220388    1.68176364349139    3.61390038402874
C         6.56550133926094    0.59312714278398    4.38521886076247
H         7.60553904189118    0.49024146550198    4.66273112976998
C         5.62133888674629   -0.33366452996489    4.79370659024334
H         5.91906569828234   -1.17870024759186    5.39795564700707
C         4.29486898458632   -0.17716955011249    4.42898489065470
H         3.55655131930938   -0.89845562942203    4.74896284990065
C         3.91049699936612    0.90511738833690    3.65099211557539
H         2.87534288934048    1.02330996145466    3.36383670999203
C         4.84952478337150    1.83160168155819    3.23989538699223
H         4.55647545853723    2.67558758525928    2.62987733827596
C         9.08408350803725    3.70634179561604    5.82525117202459
C         9.61784354302424    5.65525853440031    7.21969172551213
H         9.45824226423819    5.90613467448546    8.27291419403308
C        11.12444558004833    5.61324192354297    6.95980900152657
H        11.58426009582842    4.79758378580757    7.51370115335662
H        11.58062639004640    6.55098977759028    7.26965940258273
H        11.31018848434042    5.46652223795783    5.90045441688868
C         8.94401736776523    6.72248080769746    6.35833754143261
H         7.88217283436581    6.77959027522968    6.58501259213015
H         9.05911338868714    6.47357139376141    5.30702482017974
H         9.39823714565202    7.69229438804289    6.54817113262673
C         8.37147485830871    3.65996017205489    8.13185579539600
H         7.98309209490110    2.73024714221251    7.70170372796213
C         7.19416440513062    4.46307266601748    8.68496217646194
H         6.52840689974804    4.74831486760129    7.87406551686654
H         7.52997657258767    5.36374915645892    9.19406886794173
H         6.63951168503543    3.85575676189289    9.39599655448680
C         9.37786018452864    3.30151592563986    9.22661854189859
H        10.20158476639216    2.73326464948286    8.80053112550388
H         8.89349631839295    2.69367887445025    9.98703506915428
H         9.77909742335047    4.19324867332700    9.70367352713435
C        10.74974895997627    0.44314533165910    4.58892080669343
C        12.43574299156354   -0.39807868003299    6.09778325648922
H        12.56840026739039    0.68945448639192    6.10530650933451
C        12.09960350529634   -0.85558859063830    7.51799100691049
H        11.16273681347297   -0.40772795628763    7.84142079540461
H        12.88703584938453   -0.54212124435991    8.19920754300995
H        12.00752406902284   -1.93805299463953    7.57696830942459
C        13.73065282556782   -1.03310031034464    5.58991204975834
H        13.94303739531092   -0.68584202627810    4.58134832137568
H        13.66422207272321   -2.11890664910782    5.58063361653265
H        14.55661207301002   -0.74586861262408    6.23579330937693
C        10.86007380050102   -1.98857292107403    4.93301551083561
H        11.49646082258726   -2.64422097689849    5.53515126469893
C        11.02112698532695   -2.37921261419392    3.46335837393803
H        12.03795795969539   -2.18813394425719    3.12788567102817
H        10.33579417640429   -1.80028596824079    2.85217958003830
H        10.80017325239609   -3.43665192339337    3.33628337149256
C         9.41132952941407   -2.16676675658204    5.38936942305016
H         9.29884776279548   -1.85981168214965    6.42693901976012
H         9.11977645794858   -3.21078848444354    5.29795873390829
H         8.75447027108140   -1.56305136661325    4.77005564731803

