69
CSD_code = LOGYUE | q = 0 | S = 0 | Stoichiometry = C31H31IrN4S2 | MND = 6
Ir        4.20398479163480   11.03771320233538    2.15971104559420
S         8.03828397826140   10.45285877080935    4.39355703991016
S         3.19627066413347    6.85260596740570    0.93362743605092
N         5.88043256075638   11.80590808380452    1.30953185985168
N         2.56429810827860   10.20518967810863    3.02172462766829
N         3.70689740368358   13.03918461887684    2.74522286404523
N         2.85837510724940   12.15036452969379    0.91570773651751
C         2.92304072331975   13.20643351676908    1.70009685403746
C         5.37461763439698   14.78433320337864    3.12449446860776
H         6.19313539352065   14.06827755748299    3.15275265052927
H         5.62907584610629   15.63387077756945    3.75425796909034
H         5.25299196225586   15.13417223774261    2.10082173419502
C         4.28061256226948   13.58403297501391    5.03556700970516
H         3.33910538639204   13.23577295982915    5.45465000970699
H         4.67899897125092   14.36177919704229    5.68252579468175
H         4.97561750499091   12.74788255242878    5.01219626563368
C         4.08111358571919   14.12077067035023    3.61820620990681
H         3.28767172813334   14.88808250320786    3.63164498561233
C         0.60866717747328   11.39626659963126    0.33103133129284
H         0.80230858514461   10.38325069267399    0.67722202344892
H        -0.12376758671529   11.35911576394038   -0.47223017596217
H         0.19206406647333   11.97235672484589    1.15534834747229
C         2.51687841074349   11.19169696145138   -1.28300261968538
H         3.36527879792174   11.69793345843952   -1.73831290785884
H         1.77553638171472   10.99931105007075   -2.05477947905339
H         2.86175559893414   10.24446474576352   -0.87479845071952
C         1.91251842297969   12.03905015317592   -0.16348387608852
H         1.67022866071467   13.04062426607284   -0.55948022390050
C         7.02850264578039   11.65042647055618    2.02303803532527
C         8.23665205711000   12.20665283840590    1.59230867088660
H         9.12063443921331   12.06078648877409    2.19351950919495
C         8.26775480763836   12.92832604374676    0.41995003718906
H         9.18776849154573   13.37029482097517    0.06859676481510
C         7.08852311817336   13.07741647326744   -0.30519244124470
H         7.07234495367548   13.63280903281813   -1.22936258937454
C         5.92989578451521   12.50093505931689    0.17677537148706
H         4.99731555749770   12.59828496305139   -0.36058044512567
C         5.57126646480569   10.41553607030727    3.51015984080955
C         5.59874555100724    9.68583407517529    4.72382371727157
H         4.73516323223113    9.21604444244579    5.16293250400249
C         6.83241370269233    9.62689525935507    5.29629227398392
H         7.11704186019241    9.13933442501449    6.20921353781782
C         6.83699555733803   10.89086190743880    3.21111191682302
C         2.25442807623451    8.94687002634002    2.60707525355706
C         1.10340800600560    8.29289679706129    3.05660056190893
H         0.89670504477321    7.29677077070715    2.69720348306162
C         0.26276134431264    8.93500430644622    3.93816428934743
H        -0.63365883812837    8.45208918643806    4.29656490619553
C         0.59098077415642   10.22092649722633    4.35932565708236
H        -0.04034345577153   10.75595353358901    5.05067139976695
C         1.74414977906786   10.80831354252010    3.87741408095092
H         2.02792717607730   11.80527757898969    4.18311442878527
C         4.29533571816673    9.19842908920094    1.32983776128892
C         5.11917090128479    8.49183509664899    0.41975642273772
H         6.02607510428104    8.88884238631033   -0.00356474168761
C         4.65892820072535    7.24560209026034    0.12279765911089
H         5.09536451664608    6.51658159782282   -0.53310510950162
C         3.20893955891897    8.42016199804069    1.69243512047421
C         2.18208284076934   14.46869213022679    1.43083958391571
C         1.00166619254630   14.74832328196026    2.10933485360264
H         0.62414857639365   14.04111168563554    2.83587919305292
C         0.31503609812749   15.92287477797515    1.85910874116132
H        -0.60157489787720   16.13363118785744    2.39106932904074
C         0.80090616660954   16.82666808362665    0.92933927010667
H         0.26407437004529   17.74350082980358    0.73455746352225
C         1.97604440056105   16.55350813213939    0.24974245171575
H         2.35729190711495   17.25695421497608   -0.47647716709694
C         2.66480812976948   15.38001305209858    0.49893120771176
H         3.58313365803986   15.16462633752945   -0.03101333396046

