67
CSD_code = LOGZUD | q = 0 | S = 0 | Stoichiometry = C18H32N12O4Ti | MND = 6
C         8.34499007225138    5.05741413005102   16.05082292868810
C         7.69212401671551    4.27800468321851   14.04407272764240
C         8.19236868566135    6.45897614861855   14.25463491953439
C         8.16768981946391    4.01513537645721   18.27339264680215
H         7.90862310517831    3.14339091372060   17.67653287717471
H         7.31715820024570    4.31361966674578   18.89319685865626
H         9.01840493651016    3.79425117710680   18.92230170892211
C         7.82314487407844    8.33994834918354   12.70214257716059
H         8.68549286255198    8.85947669787601   12.27416176658863
H         7.01235515976116    9.05967368117647   12.84147107553505
H         7.50450526125173    7.53444667677095   12.04398473787780
C         7.23415381465439    1.91410512816844   13.82913852849541
H         7.98828592923148    1.81879840649699   14.61233397754310
H         7.44348302710379    1.19058988290071   13.03718482699685
C         5.85155989530874    1.66392122673487   14.42742983478095
H         5.66941783021965    2.38522705168686   15.21858566928298
H         5.79759501816116    0.66093791803512   14.84223453424381
H         5.07850791118050    1.77158978876549   13.66991772192841
C         7.03613809629746    3.44188135082301   11.87016203095384
H         6.60854175547180    4.43977808492342   11.76056459420671
H         6.29577698901268    2.69627410426003   11.56922741851061
C         8.28674663741828    3.32779224623974   11.00074774390009
H         9.00278751964146    4.08861775681955   11.29771804215710
H         8.03144605010092    3.47283758048830    9.95443846767996
H         8.74826412465248    2.34959619186390   11.11572660676374
C         7.04273113079413    9.86795470331372   17.45212083680372
C         7.80221496289355   11.93828550477467   17.88745607794266
C         9.28536558739307   10.27231066783575   17.59401780649528
C         4.78323524703733    9.10292049119541   16.82732527402733
H         4.54046390643148   10.14193940936909   17.03998387676560
H         4.21837436316798    8.43856387190506   17.48734080371533
H         4.53741891386102    8.86049316359536   15.78991701565555
C        11.71397930547348   10.38211079657135   17.20461984908995
H        11.55549682309326   11.42439581887598   17.47280800883428
H        12.06630649959807   10.30762073363663   16.17180875445388
H        12.45600703950197    9.92725344179186   17.86525390503881
C         6.18765144770053   13.69411860194084   18.23721538846834
H         6.14736419918046   14.57585485556728   18.88194943979897
H         5.57317184107222   12.90303199804331   18.67319135076259
C         5.64712876764357   14.02804353844690   16.84824604383522
H         6.20183793460853   14.84717490886131   16.39859517530469
H         4.60069801833469   14.31398785730654   16.91745693479737
H         5.73274301375041   13.15163560394435   16.21273290838103
C         8.65422244081484   14.13634355142632   18.38783189958916
H         9.43480865524217   13.61060688995176   18.94309654503922
H         8.29902388675463   14.98162863850406   18.98253521950184
C         9.23899363887772   14.62722143391596   17.06504685302770
H         9.55403094202851   13.77095467715671   16.47625484797866
H        10.10039456490219   15.26234348127446   17.25511269123894
H         8.50597183661794   15.19572500201070   16.49911581647715
N         8.68644438262896    6.23413691220492   15.48889769930816
N         7.89463916296875    4.01881227939680   15.34844279607159
N         7.74704180637453    5.48832626927301   13.45804905068541
N         8.50888168002937    5.07450031568922   17.36715847131151
N         8.17286016566046    7.75254941855898   13.96319830281520
N         7.33991411715681    3.24125422309156   13.26809043304233
N         8.28491921140291    9.36930879230243   17.61554339239002
N         6.73840478945476   11.15095851952764   17.64418712434412
N         9.09356866678124   11.57619499806028   17.79147305138215
N         6.19130052855587    8.93701063901916   17.04489211264494
N        10.45684550167502    9.70388561677476   17.34259625270139
N         7.55176493272433   13.21847796193650   18.21184438989605
O         8.82480704393469    6.30035160463311   17.89992751521679
O         8.58774434065245    8.58992177790775   14.97683727096697
O         6.74779062210840    7.70147082217357   16.79238319850491
O        10.40220779406495    8.37204686807664   17.01359282775989
Ti        8.67476869492544    7.72608912101904   16.69922796589411

