77
CSD_code = LOHBUF | q = 0 | S = 0 | Stoichiometry = C28H41BN6Zn | MND = 4
Zn        0.26234401606018    3.53960241073043    1.16492489969433
N         0.91504005387952    5.81892787341004   -0.52616573068016
N         0.07594576812744    4.77450449019018   -0.58714280771744
N         0.77263894921736    6.19719096762287    1.98378189283176
N        -0.05491782854812    5.20800509500013    2.34832101537257
N         2.72642265662945    5.03048621140639    0.87612565071318
N         2.39575100352212    3.81967093431772    1.34704228081939
C        -0.63988857130924    1.73412402479622    1.38532279376103
H        -0.63002578435917    1.12414633971051    0.48569747078837
H        -1.68716863008445    1.82812683006353    1.66279716758956
H        -0.18364168148888    1.12322968737630    2.16020640913158
C         1.06844147613835    6.34905668748875   -1.74540602351487
H         1.73619755933814    7.16580152156167   -1.92754607192398
C         0.26846166276981    5.65440708407034   -2.62393778322468
H         0.15609181145785    5.84018289271303   -3.67129559773007
C        -0.34782171812738    4.66688174663331   -1.84886295405890
C        -1.32497647703523    3.62434747680285   -2.31907773278474
C        -1.89342266820134    4.00869413708874   -3.68957192508707
H        -2.64833435671143    3.28455400507302   -3.98810002557513
H        -1.11533831426797    4.01693665319974   -4.44868863164089
H        -2.35674420009893    4.99200006544122   -3.65271771597986
C        -0.58664306209786    2.28585512690192   -2.44550495261995
H        -1.27886731077326    1.49875013041793   -2.73601721286774
H        -0.12532419885026    2.01818488421491   -1.49904334917354
H         0.19522688336991    2.35626460153615   -3.19923542954200
C        -2.48217438875838    3.50691602183129   -1.32373462447941
H        -3.18516962224806    2.74548687746222   -1.65430250521880
H        -3.00916469315211    4.45552225871727   -1.24749839965068
H        -2.11236462050260    3.23770472980569   -0.33996793546177
C         0.64987933692232    7.21894960102729    2.84253999239456
H         1.22201025064116    8.11801684994647    2.74459242912084
C        -0.28930687628594    6.88419563444184    3.79014343647643
H        -0.61255853055899    7.48854716732395    4.61123241287966
C        -0.71413062591598    5.59988509182963    3.43900850066425
C        -1.75267872484007    4.75476111488205    4.12488185204122
C        -2.86723146572074    4.42714439746067    3.12493460961811
H        -3.60212832442871    3.76816080999760    3.58191545115047
H        -2.45607130885026    3.94129076492614    2.24484878411785
H        -3.36871110388443    5.33964659175527    2.80931055367094
C        -2.35853957426012    5.51013656605966    5.31177994826444
H        -3.11805164813955    4.89365653061045    5.78769758122140
H        -2.82643859889968    6.43574149494784    4.98506357220590
H        -1.59707062921608    5.74410406711428    6.05185791776888
C        -1.09951813780819    3.46789209301147    4.64012547863406
H        -1.84038962289813    2.84137801806476    5.13182629000258
H        -0.31579822192457    3.70482521629309    5.35663244394329
H        -0.65981640890404    2.91147409023350    3.81841139533948
C         3.99822950259726    5.02551866063953    0.46030504754872
H         4.44526533997606    5.88245151053865   -0.00061336549595
C         4.53104020728190    3.78133912355944    0.71348068561825
H         5.53075032258677    3.45925803549355    0.51057849360408
C         3.48477007233824    3.04883420873174    1.28328102357490
C         3.53193644187990    1.63149497722043    1.78533467241755
C         4.98596343617836    1.17929572792867    1.96032261543744
H         5.00865718673983    0.18458374964122    2.40024351714619
H         5.52525881632843    1.85757045219181    2.61773763601861
H         5.50016070781696    1.13722058345191    1.00340804061153
C         2.82418907981183    1.54677545415520    3.14119873430333
H         2.79555086746868    0.51577091971018    3.48695800731207
H         1.80824647293758    1.92211722090107    3.06600827129320
H         3.35517766221440    2.14502112568291    3.87863573524840
C         2.84892342185526    0.71471480836323    0.76366985252650
H         2.86565681307940   -0.31541685288325    1.11263725186257
H         3.36635744205003    0.76497302949776   -0.19243850263964
H         1.81743053857806    1.01754202232475    0.61421585904066
C         2.38101816656985    7.64012815056025    0.67295224749870
C         1.70886851078896    8.70841134249486    0.07634967168441
H         0.73588054518554    8.54264515263348   -0.36445189527320
C         2.23961940507265    9.98604458628448    0.05335773509144
H         1.69364139321166   10.78626328163041   -0.42616475404768
C         3.46153225311663   10.24181104573952    0.65061745690373
H         3.88291137591901   11.23637306353642    0.63008689853383
C         4.12357050962451    9.21351646984754    1.29738894657481
H         5.06197034922130    9.40521052386754    1.79848016015761
C         3.58316913514671    7.93901439663700    1.31400491648028
H         4.10276664039367    7.16413999879234    1.85950457997755
B         1.70166388511323    6.17610936533324    0.75290563970574

