25
CSD_code = LOHCOC | q = -1 | S = 0 | Stoichiometry = C4H8N4O4S4Y(1-) | MND = 8
Y         7.33090295531555    3.66661117875573    1.86915841330675
S         4.89406736263941    6.71786794355299   -1.14718988797116
S         8.55171541509702    7.40713418316947    4.85667847695215
O         9.41168167482112    5.08427961649889    0.87125390457816
H         9.68060083876636    5.62571137603700    1.62604488040826
H         8.98514225193256    5.67939698768977    0.24046049582236
O         4.90376342656612    4.34188524933204    2.84971451548736
H         5.09116297613594    5.08828750259461    3.43437615318595
H         4.44708492776386    4.70137063814751    2.07672170643728
N         6.46910373533480    5.07926196315068    0.42061888617885
N         7.69301353470577    5.29656196240783    3.29737132509242
C         5.79013125021539    5.76611010248117   -0.25588306972847
C         8.06762220357655    6.18754243649756    3.97278958355634
S         9.76360657615962    0.61282467560646   -1.14838718171437
S         6.11813819959424   -0.07792801043027    4.85562732098186
O         5.25114288166181    2.24756910645024    0.87074388832996
H         4.98906948624196    1.69973713637109    1.62349398719075
H         5.67849258205601    1.65886780151164    0.23428811908720
O         9.75941430170514    2.99010069257799    2.85162379878365
H         9.56712256211491    2.25176212353902    3.44493491520847
H        10.20973762826587    2.61799587454707    2.08089924159030
N         8.19130104277684    2.25319742232669    0.42035449814369
N         6.97080626895147    2.03594065580860    3.29733558242015
C         8.86820403283554    1.56574104073514   -0.25762048233633
C         6.59947188475544    1.14347034061759    3.97269092899680

