94
CSD_code = LOHFIA | q = 1 | S = 0 | Stoichiometry = C50H36CuN4OP2(1+) | MND = 4
Cu        9.13226952356147    8.65509272427320    4.91619990716249
P        11.19268746514948    9.57064518348999    4.69244985867482
P         8.29705135622894    7.68553316781438    3.00585865325939
O        10.95228045591491    7.36046320932308    3.10335066373155
N         7.79538853116355    9.30351904807719    6.26292711762153
N         9.21767794292011    7.01603271927316    6.21682063994341
C        11.34258315925523   10.39063584016290    3.07421505285371
C        12.53464198663403    8.34698792701041    4.52193221292448
C        11.20535056241786    7.98963582484912   -0.51162495495257
H        11.93346227950575    8.09626297798045   -1.30060648460870
C        12.23377213812243    7.32912671436419    3.61119272135756
C         6.64601578027171    8.09615716379227    2.35990450091935
C         8.21362357661196    7.10545827913094    7.09693233843964
C         8.09704698019601    5.91332160094642    3.36461250443419
C         8.91642114661400    8.01688789209650    0.21986157808632
H         7.86657177930539    8.15340907325179    0.00710653852998
C         9.32988610308139    7.72781960779756    1.51037749338675
C        10.17537977551501   10.72699375404970    2.39782676111868
H         9.21908499216095   10.53365099771684    2.87194328418683
C        11.89185602173435   10.74322637203529    5.89054209420687
C        10.69764385026393    7.58552160627415    1.78013881173956
C        14.37065785684047    6.33874496670212    3.98463373186084
H        15.09078081779514    5.56317553748796    3.77489038050031
C        13.14335493166717    6.32334649748286    3.33817087104044
H        12.89417092589844    5.53978280697967    2.63785472502946
C         7.88089456682501    6.04268777279333    7.95472038148738
C         9.85723022692551    8.13319748339306   -0.79059042526591
H         9.53630314143138    8.34750457623758   -1.79791673869101
C        12.33005045633493   12.02163772042323    5.56888748906492
H        12.29744633955115   12.36476257572469    4.54459381070405
C        13.75757580066129    8.33840197706770    5.17572167299859
H        13.99525126219977    9.11552502499745    5.88752629391593
C         7.15527360203179   10.45630868124628    6.30331279827339
H         7.46728148232099   11.20084814078816    5.58369434753064
C         4.84892948450139    9.68871972331823    2.22941501425472
H         4.42530230383675   10.64580159852581    2.49494285244828
C         7.47455817545725    8.34467068019302    7.14516248827645
C         4.14057986426798    8.81685018782775    1.41892977325830
H         3.16519407416337    9.09555329025157    1.05046240969442
C         9.90306849277289    5.89652060953630    6.12872143159212
H        10.70751043131465    5.88792451848306    5.40639922729204
C         4.67940589502578    7.58394945791915    1.08263727610434
H         4.12356769322380    6.90605298516433    0.45238796096628
C         8.60747205496924    4.85264411246589    7.83973807259422
H         8.35524374311538    4.02518997664217    8.48415402940334
C         5.92757736133293    7.21894553958752    1.55161635766636
H         6.34966560996416    6.25658948777992    1.29589499184313
C         6.45213300870580    8.52232892488131    8.09326840254140
C         6.82024314397046    6.21670102238788    8.91790767650726
C         7.12527686392319    5.59246049563145    4.31168165653513
H         6.49846769499251    6.38099481311177    4.71209744790136
C        12.63707295998109   11.18108002654628    1.21402026079291
H        13.59595923339938   11.36030266019844    0.75123380840112
C        14.67251013518100    7.33496388668531    4.89839879952764
H        15.62923665253001    7.33279438231086    5.39748471453990
C         6.09888790099395    9.32812855783100    2.70031674457574
H         6.66204532416611    9.99494963060847    3.34129824942167
C         5.77550336372348    9.74657449212733    8.11745131525955
H         4.98982671343848    9.89337017161522    8.84163782314560
C        10.23863738558737   11.28351025123756    1.13372050512462
H         9.32996131040161   11.53659872734692    0.60882826394003
N         5.16491271583395    7.62808891151344    9.90603775956264
C        11.63928463886925    7.71906070738528    0.77717149280130
H        12.69276754302597    7.63347243778936    0.99759021719438
C         8.90248046398477    4.91125544321883    2.84068629739579
H         9.64982587448865    5.14931319869928    2.09749404495809
C        11.47005440056288   11.50693764034372    0.54052348533006
H        11.52197139374549   11.93560999837552   -0.44845572263782
C        12.57887193439867   10.62111143729310    2.47670394196352
H        13.48814997667596   10.35893257869369    3.00091269334795
C        11.90493539777258   10.31705528849678    7.21828234772227
H        11.53436196219391    9.32647789557991    7.45587078570964
C         8.73410106244196    3.60264090945243    3.26122514132190
H         9.35627422609920    2.82317384860458    2.84695219817885
C         6.13893002223018   10.72522920489321    7.21572243768623
H         5.64770026980920   11.68467589139333    7.20737955352201
C         6.12992252691652    7.44378918673374    8.99821163308980
C         7.77129920756043    3.28936842192673    4.20540656144505
H         7.64594162393095    2.26805837412103    4.53103651962172
C        12.84599610981905   12.41658999851858    7.88222665980861
H        13.22361496194455   13.06813487682679    8.65529931985463
N         6.51257077619911    5.20360227786702    9.73576809017241
C         5.55986235513924    5.40173220348218   10.61788786392028
H         5.32551887864759    4.57224257133312   11.26961578356103
C        12.81009853946641   12.85172774628509    6.56772770213259
H        13.15674274786769   13.84323945259544    6.31807223800867
C         9.62553758421095    4.77888815148525    6.91266468469038
H        10.20788187070508    3.87965265045844    6.79482349243519
C         4.88538415713197    6.62707110919529   10.70894656623239
H         4.10837200209807    6.79744403766231   11.44029217363464
C        12.39034798647334   11.14793873860828    8.20901640566554
H        12.41121466705114   10.81289775040589    9.23540749910920
C         6.96118599595675    4.28669905095361    4.72785894882325
H         6.20458243470972    4.04261235455769    5.45917299867761

