129
CSD_code = LOHHEX | q = 0 | S = 0 | Stoichiometry = C48H71AgN4O5 | MND = 4
Ag        4.92037053740916   10.37310661909367   12.94263614506327
C         2.31812135555791    6.99807600479362   13.57189144379325
C         1.56019553991244    7.45760585780101   12.51624458149855
H         0.60357187506899    7.08516416333258   12.21402689341945
C         2.27014320653726    8.54785269278300   11.97142894526855
C         4.55204228120821    7.69287832235020   14.43999241556095
C         5.05568915773368    6.45893991529434   14.84355879518836
H         4.57740355999956    5.54427184971650   14.53321918528358
C         6.18813353113144    6.44634048287272   15.63671992400137
H         6.60711396999431    5.50884216340519   15.96865136988439
C         6.78176039806782    7.65322444091103   15.98327842407679
H         7.66650538855992    7.68094997640369   16.59794301666642
C         6.21753420366380    8.82751360321326   15.51831153587282
H         6.64186682171271    9.79149009524215   15.76111578204421
C         1.99532385940665    5.96874649892766   14.54977816169979
C         2.19148002958569    6.18549607005158   15.91611860661783
H         2.59562080068189    7.12696667393802   16.25780378828411
C         1.85104822541702    5.21840679099886   16.83155603509141
H         1.99249740136719    5.37938007691003   17.88829008084034
C         1.30228124811221    4.00024514088027   16.41547062971869
C         1.09368088407226    3.78523622957324   15.05547756944792
H         0.66708730898823    2.86126233127835   14.69904865340408
C         1.43229549295435    4.76497117657186   14.14023428899678
H         1.27148685846789    4.58666421383643   13.08750238674966
C         0.45327871638807    1.86395310587626   17.06684178555507
H         1.13695445972341    1.31045672453329   16.40835825554197
H        -0.50368738599747    2.00478206161963   16.54572483180051
C         0.23448961306001    1.09204573231320   18.36393231000336
H        -0.38190072858696    1.70041913431433   19.02758461302215
H        -0.31044776765231    0.17463191707889   18.13473437042965
C         1.55327472512711    0.75929562566321   19.05789798234481
H         2.16013535961580    0.13140110166218   18.40086419450132
H         2.10066058212551    1.68676492900012   19.23354158972208
C         1.33196779351303    0.03893205210658   20.38491160292196
H         0.71766937971022    0.66459005441389   21.03632268990497
H         0.78381160370029   -0.88939074732590   20.20673575468833
C         2.64864603008523   -0.27868528972759   21.08953515722708
H         3.19881177594110    0.64964868640517   21.26002572284822
H         3.26206402709780   -0.91135962500051   20.44361031798261
C         2.42707399738049   -0.98512133503207   22.42465062802565
H         1.80826353320653   -0.35441229563976   23.06730642578879
H         1.88189202509602   -1.91659971084901   22.25464326617332
C         3.74133405824597   -1.29300063680076   23.13789836324835
H         4.35929865504105   -1.92860113179056   22.49918597017903
H         4.28845195042119   -0.36185731487063   23.30364367880136
C         1.90283049614227    9.39695818947879   10.85220750115380
C         0.95782893323164    8.97824303797471    9.91849769364856
H         0.50614696985259    8.00235763773387   10.01324486888215
C         0.59458377194985    9.78178825439166    8.85434414211745
H        -0.13841949979282    9.41944547931859    8.15068015438948
C         1.17523494819284   11.03836993697206    8.69846368161770
C         2.12827386931069   11.46356378293728    9.63182862877372
H         2.56892780513570   12.43914332118282    9.50509083481586
C         2.48208253013277   10.65976785020314   10.68781292054572
H         3.20710251092974   11.02416319096969   11.41802873025670
C        -0.09861071944424   11.58445260542722    6.75140750818012
H        -1.05658718049102   11.38675531161537    7.25264822388350
H         0.19484944373559   10.68691362806332    6.18905746363423
C        -0.23704233737538   12.77495397338761    5.80892785610131
H         0.72480383723827   12.94951268288246    5.32450086480120
H        -0.47403807103753   13.65895899865637    6.40308035261551
C        -1.31916976898309   12.54932625110789    4.75732859213843
H        -1.07670311154801   11.66113783624206    4.16901201557612
H        -2.27535378916984   12.36614302421441    5.25346876343798
C        -1.45542949460573   13.75211291380536    3.82681382813439
H        -0.50199145475900   13.92794088714814    3.32410520712396
H        -1.68380788284538   14.64049552208247    4.41963522732515
C        -2.54812304486199   13.55264802110075    2.77933655260370
H        -3.50297746884727   13.37844030799979    3.28098812003228
H        -2.32196619837735   12.66505972145559    2.18377135338298
C        -2.67624850481929   14.76173152826850    1.85597234569900
H        -1.72154809702765   14.93322140046298    1.35331413102439
H        -2.89694927661912   15.64908719933550    2.45386246731823
C        -3.77054771886764   14.57698307676289    0.80758385843862
H        -3.55209656360319   13.68936099080850    0.20906155379860
H        -4.72697912301144   14.40918038205147    1.30849756132132
C        -3.88805792809170   15.78978194329861   -0.11228822995181
H        -2.93011449857412   15.95775131710042   -0.61022549296098
H        -4.10669090184984   16.67661408888308    0.48730856549980
C        -4.97843265049376   15.61345129732072   -1.16616453018400
H        -4.76117127779229   14.72623044016488   -1.76580993982427
H        -5.93779897405237   15.44841820340967   -0.66988434903398
C        -5.08710158287907   16.82857937565569   -2.08411501109842
H        -4.12590757584944   16.99472346030405   -2.57650357480271
H        -5.30655158613410   17.71494727771861   -1.48402785416021
C        -6.17235950087890   16.65627962505570   -3.14396695416177
H        -5.95362872945295   15.76929415422277   -3.74359137295044
H        -7.13444598448214   16.49196855147635   -2.65254168716206
C        -6.27518798152857   17.87234290910075   -4.06122064406639
H        -6.49620988524710   18.75875347219436   -3.46167780774804
H        -5.31202168796344   18.03746969118243   -4.55019166497192
C        -7.35650104755429   17.70268508648156   -5.12557649520310
H        -7.13600969288134   16.81633532903663   -5.72505256965331
H        -8.32022128765402   17.53952342323772   -4.63751650507258
C        -7.45038796897487   18.91988472204624   -6.03742524366929
H        -7.68974651049938   19.81081064451621   -5.46070077050095
H        -8.22468173380204   18.77862128124471   -6.78803148825730
H        -6.50424961205479   19.08786645790887   -6.54759743404018
N         3.39692148004396    8.72247310807991   12.65380882543372
N         3.42849347514675    7.78963598533365   13.61974509652497
N         5.12134318445439    8.85446659020846   14.76612006691656
N         6.70269262978700   12.40295494429354   12.65841346390230
O         1.01181458326388    3.12101628538486   17.39951592306683
O         0.89252090483146   11.91109198215355    7.70568846353026
O         5.47617931472271   12.61655392399290   12.73436886854402
O         7.08253663918687   11.21534733725086   12.68258071337958
O         7.48762200462566   13.30706385645189   12.56769680754928
C         3.51616390824048   -1.99009321757841   24.47729573281913
H         2.97228098545548   -2.92316775040633   24.31172374674340
H         2.89448184410058   -1.35553751321079   25.11347093086546
C         4.82823331135775   -2.29230605001691   25.19692518582583
H         5.44935401737446   -2.93009685537580   24.56343247724737
H         5.37347492438610   -1.35953365566626   25.35981859777165
C         4.59980986324347   -2.98323295731008   26.53901332124578
H         4.05620730261066   -3.91698299038276   26.37607848248466
H         3.97650228916022   -2.34584012890394   27.17080635741717
C         5.91007269944609   -3.28253878499252   27.26316090693715
H         6.53266156076488   -3.92244879781888   26.63311886785358
H         6.45493298851500   -2.34900904025921   27.42357869454975
C         5.67926625829287   -3.96895657783402   28.60710189141944
H         5.05629494421153   -3.32877376660904   29.23647956954612
H         5.13491778673791   -4.90276739722963   28.44656294929933
C         6.98795394655146   -4.26830416850449   29.33424180442556
H         7.53263730678315   -3.33489049353205   29.49445712505761
H         7.61046090730716   -4.90988418699614   28.70615902258133
C         6.74861738330245   -4.95108726789046   30.67525095933845
H         6.14721284927714   -4.31746618993855   31.32372809301950
H         7.69233215074437   -5.15647423280426   31.17530894756505
H         6.22231300572166   -5.89288611369799   30.53492798888558

