46
CSD_code = LOHKUO | q = -1 | S = 0 | Stoichiometry = C14H18N3O10Zr(1-) | MND = 8
Zr       -0.97316630421818    0.03695101099238    4.00982055426398
O        -1.06206170406029    1.29652847183723    2.35113372296252
O        -1.83220916173494    1.37387469982061    0.25671544674852
O        -2.06708916186544    1.53297266944548    4.89463248588827
O        -3.96126752075940    2.43573328578039    5.65022679136129
O         0.85613779680248   -0.11851123251784    3.05878710508155
O         2.19903130850358   -1.07284645947961    1.55741834532665
O         0.23941407134848    0.41992082655649    5.60555190324367
O         2.11000710958262    0.22657083436451    6.80079332159519
O        -2.15658134850422   -1.26391182181557    5.02815970618003
O        -2.81051767437969   -3.15480950159221    6.00058270156282
N        -3.32737137857706    0.07336220079896    3.11165316544737
N        -1.21255101184839   -1.71035429626211    2.29157484264451
N         0.29650166919965   -2.07547221631671    4.82080712961553
C        -1.97317346168445    1.28492110092072    1.46980935301366
C        -3.39565377967438    1.09365076644703    2.06563341747737
H        -3.67106513341318    2.05609958185255    2.50848502292705
H        -4.12520881711004    0.84495491085048    1.27972973723629
C        -3.32935137316644    1.60234342361536    5.02395300989666
C        -4.12556636690003    0.48360471882710    4.26205884413305
H        -4.25332127074837   -0.34941584434993    4.95746479203852
H        -5.11868735449468    0.86199782458981    3.97526169818774
C        -3.65033704462961   -1.25300333217075    2.60076886041481
H        -4.60719438153627   -1.25326718669214    2.04525682443786
H        -3.74462604966946   -1.93659891970039    3.44960588150242
C        -2.54216505635263   -1.73185105167116    1.65312043749660
H        -2.78313529527381   -2.74398259037359    1.29075029533543
H        -2.52323189976403   -1.06784680096878    0.78513026042805
C         1.10207256826266   -0.80321503161147    2.02298490828089
C        -0.16563070036748   -1.37936841384423    1.31366768297261
H        -0.50106600597459   -0.58387298907504    0.64209047888725
H         0.11551370662892   -2.25196994304856    0.70321938192583
C        -0.92213564346877   -3.02579295907084    2.88584795024044
H        -0.80650803865592   -3.77866269619784    2.08349023087495
H        -1.77113757715952   -3.32519774581610    3.50804412923566
C         0.35934129152424   -3.04597669367579    3.73683683678850
H         0.48514720472755   -4.07377908326724    4.12563618350041
H         1.22223449789390   -2.82619373182862    3.10424102381972
C         1.31397969177217   -0.16252765904297    5.96585045464833
C         1.57880099641713   -1.54737512487279    5.27311798758664
H         2.24761977307948   -1.36071676037519    4.42963713565804
H         2.08648956523609   -2.21961401168312    5.98220730193358
C        -1.95476189251503   -2.35019861257410    5.66872588522134
C        -0.46127762302786   -2.59223927538749    5.95580180815206
H        -0.21844370898847   -2.01371001625430    6.85264979900349
H        -0.26169751045650   -3.65790432516226    6.15386516482305

