37
CSD_code = LOHLEB | q = 0 | S = 0 | Stoichiometry = C14H18CdI2N2 | MND = 4
Cd        0.42478435560037    9.79840870855754    3.77498579183847
I         2.07030153721221   10.91830418287002    1.96194502554290
I         0.67181414356640    8.40272548674985    6.06433591929646
N        -0.96479518408520   11.64154603890875    4.61607089911198
C        -2.35882081936120   12.30928096979355    6.44262710196063
C        -1.97867917634056   11.39749796750439    5.44761684634454
N        -0.87609220986690    8.35344774124852    2.27452386722275
C        -0.30887400951068   12.79828935472906    4.70924028723903
H         0.49271923740056   12.95722772897765    3.99615703649475
C        -2.70879053159693   10.10356266079097    5.28566740797622
H        -2.35065307951088    9.56374135449037    4.40766383813710
H        -3.77791302184800   10.28256780577034    5.17981849421201
H        -2.56008064648284    9.47847545782607    6.16635301130223
C        -1.29466810836092    8.80076397859455    1.08976458842666
C        -1.44010178146000    7.95024418794637   -0.01546467892950
C        -1.60841708015048   10.25722909700005    0.97262347624019
H        -1.54644843668007   10.74674318197130    1.94584429814370
H        -2.60980080245981   10.39813338566960    0.56824723776300
H        -0.90312997870597   10.73714346512787    0.29376659322682
C        -0.62488798216627   13.76218359332473    5.64613036127146
H        -0.07003061019833   14.68547614320395    5.68814790540210
C        -0.61423020768972    7.05530168235228    2.42641057937002
H        -0.29765121487510    6.73907804930967    3.41433037918547
C        -1.15396345077575    6.60428577327647    0.15787777491759
H        -1.25049090941829    5.92160801353097   -0.67396073368704
C        -1.65856069210877   13.50308192044063    6.53212005076387
H        -1.92117496934241   14.22601135634926    7.29089849208515
C        -0.74583879203229    6.14218023047471    1.39901680497268
H        -0.52517786166500    5.09987795547304    1.56330670687318
C        -3.47582201365870   11.99473096409552    7.38333586084264
H        -3.60787931875966   12.79913063322394    8.10201636285283
H        -3.26725272900876   11.07295125853483    7.92456258838997
H        -4.41021452338050   11.85640616317957    6.84021877775672
C        -1.87879820236850    8.48366400897884   -1.34010663042198
H        -1.19679735538246    9.26140356497810   -1.68069352753777
H        -2.87348833232654    8.92265533985019   -1.26875289807936
H        -1.90229524217600    7.69034059492792   -2.08244589650885

