83
CSD_code = LOHNII | q = 1 | S = 0 | Stoichiometry = C32H44CoN4O2(1+) | MND = 6
Co        6.08669205947631    6.98773546872607    5.66794243980676
O         5.70596641229880    8.72838219420349    5.22423742325986
O         6.97331155093086    6.91132673018774    4.06801604975939
N         7.68622203951528    7.29746827829190    6.99102917135698
N         4.07444310573600    6.09611529803602    4.79416161740072
N         6.32470735677857    5.17149523684476    6.05761998396061
N         5.02235000452573    6.98480647644478    7.20962457168569
C         6.48967502745783    9.14603918974221    4.26159566851199
C         7.21585017211801    8.10979066444493    3.59682433116320
C         8.14128935045305    8.43641860968026    2.58182555205343
C         8.27396485339616    9.77304511809921    2.27114612067438
H         8.95414274663476   10.04855225170902    1.48455498400948
C         7.57189133465887   10.80938059423497    2.91767006762798
C         6.69059474791755   10.48851988255406    3.92970737840254
H         6.11566280350000   11.23053211034423    4.45704633531486
C         8.89273065103264    7.32640715644579    1.86455911187962
C         7.87104785127399    6.36598026211753    1.24142833399220
H         7.23843020830887    5.93766473724594    2.01435858306229
H         8.38212652355981    5.55840892606564    0.72254876496331
H         7.24370038851797    6.89503962279390    0.52721252644505
C         9.74595609312663    6.56793206156145    2.89193099919797
H        10.45721057655276    7.24303757661117    3.36537046190445
H        10.30166316933433    5.77236474396510    2.40119832944915
H         9.10869188675560    6.12394166080496    3.65264774429417
C         9.80951652480023    7.84931865854195    0.75774177463359
H         9.24106815181147    8.37517816479472   -0.00529217677053
H        10.31232069273337    7.01073790416486    0.28137536700272
H        10.57209203290197    8.51306097872722    1.15854444578617
C         7.82265021622680   12.24043698626107    2.47293454185770
C         7.46622890397684   12.37640338468374    0.98562742971454
H         8.08574525301363   11.73647653741289    0.36421436070159
H         7.61130217362926   13.40437312380837    0.66258428333839
H         6.42491281561149   12.10757681410881    0.82265211751500
C         9.30606284999328   12.57718884580137    2.68517818984659
H         9.57072516321963   12.46936605338562    3.73506328032478
H         9.49854350308921   13.60439017282402    2.38556499612729
H         9.95204035160474   11.92816379444655    2.10113211263908
C         6.98575259304011   13.25430209870422    3.25696802992193
H         5.92267425757253   13.07321752723584    3.11960739339306
H         7.20385700056172   14.25720370208352    2.89767741229119
H         7.22057737035027   13.22085077946993    4.31819633891904
C         7.04752115330477    7.71907586557662    8.24792788325143
H         6.95893725064801    8.81038393682085    8.23094937343982
H         7.64866055927713    7.43518352578612    9.12017556533197
C         5.65455884911179    7.16989539468442    8.37008227401435
C         5.04062556676793    6.91163364077116    9.58396706919735
H         5.57100189194242    7.07340265513682   10.50852970496494
C         3.73357688106047    6.44649028831876    9.58351940488493
H         3.22908495020594    6.23288727417647   10.51223064050716
C         3.08753180639259    6.26092882845954    8.37210710573957
H         2.06953695076659    5.90711025787197    8.33896009571071
C         3.76407171802124    6.54105698205776    7.19318352507704
C         3.11291146875268    6.42473140479501    5.84290992388437
H         2.69079208471057    7.40865853870042    5.61370304665493
H         2.28748362833913    5.69936802457929    5.88991792417209
C         4.36131627008029    4.66529693020804    4.74506697895502
H         4.77888620444778    4.43940549969546    3.75835922004948
H         3.45527963573240    4.05657161486727    4.87978672667752
C         5.39886959308892    4.25890467280324    5.75508087098938
C         5.43771716126837    2.98706743274973    6.30889784432925
H         4.68231919817420    2.26277233455225    6.04947831362093
C         6.45656160801108    2.66291903680201    7.18996397547822
H         6.50553492178293    1.68197305368848    7.63482148212395
C         7.41341035089062    3.62107740792555    7.49215397187204
H         8.22311641323883    3.40149481899828    8.16924433771592
C         7.31221401238200    4.87049681202827    6.90442875422869
C         8.31001469631019    5.97165290522616    7.12609291555233
H         9.07341631182840    5.87659102835865    6.34645735458708
H         8.79801645321917    5.85373286501874    8.10107308564456
C         8.66228400572765    8.30005448177656    6.52866212803627
H         8.12762222651026    9.24106166747726    6.38058716817951
H         9.03205443927663    7.98084067663968    5.55150843074823
C         9.84369746191372    8.52990932318396    7.46673272131844
H        10.48610154932916    9.28981521628658    7.03069479089933
H        10.43700999998844    7.62889365082626    7.59804042784189
H         9.52225507468743    8.88626392834389    8.44186650770366
C         3.70506945945979    6.64873296947786    3.48915430034477
H         4.53719408551625    6.45527436132610    2.80846434471531
H         3.62699681403286    7.73171337592123    3.60797765459468
C         2.41152124873123    6.09759092284239    2.89352154135911
H         2.23410445477861    6.57125850817997    1.93234086329524
H         1.55773890998363    6.30698985591095    3.53318714544823
H         2.47339191236316    5.02420765349223    2.73166615941069

