96
CSD_code = LOHTOR | q = 0 | S = 0 | Stoichiometry = C50H38ClO4P2Rh | MND = 6
Rh        1.48828636361879    2.22687751108783   16.97311352784332
Cl        0.36815918312068    0.26015674050496   16.68192739255318
P         2.25253686044457    1.38345809790814   18.91976656801049
P         3.23908020891229    1.68587168558753   15.58701182276788
O        -0.00575547261948    3.04941115807762   18.02764654411135
O         0.43062456569539    3.29543674147773   15.39520256214103
O         2.22099432203495    4.13728830812213   17.23508993489713
O         1.13315442395738    5.00676684076388   17.46420643677948
C        -0.12444457096947    4.25446145699309   17.46579491459772
C        -1.16480416972703    5.12051549515995   18.11622920174631
C        -1.43545801133069    4.92525866531062   19.46070130497074
H        -0.88760996813983    4.15949341958878   19.98843149680048
C        -2.40059721544049    5.68579412812077   20.09367103564832
H        -2.61053531332260    5.53141654946843   21.14137876280322
C        -3.10014906289938    6.63760910972285   19.37019116349593
H        -3.86611609327367    7.22825831360045   19.85141902346374
C        -2.82943478275369    6.83447924955539   18.02994570769137
H        -3.40708886811704    7.56703501842626   17.48831091615637
C        -1.84735054942127    6.09025527442407   17.37165367236475
C        -1.55294884686066    6.27660190029145   15.94943555042912
C        -2.02063702777214    7.37440902309227   15.22598893653963
H        -2.57973126181089    8.15044237367422   15.72424423805248
C        -1.76706704115538    7.50707782319525   13.87378169043193
H        -2.14079717821408    8.37239004946298   13.34578700593017
C        -1.03768525323538    6.54343472646033   13.19153670409383
H        -0.84593155840063    6.65058050107216   12.13468458308247
C        -0.54576016455369    5.45708617907554   13.88254030158893
H         0.04796007091024    4.69996812326510   13.39232570826220
C        -0.78365767870782    5.32654228286927   15.25077363449077
C        -0.20066539564783    4.19919399692189   15.95519688359738
C         2.63885007041285   -0.39513336672014   18.93386252101349
C         3.60880608468242   -0.85209898690793   18.04718103083214
H         4.09306679668129   -0.14195858777826   17.38938147948268
C         3.94749180551787   -2.19039259610938   18.00357868996303
H         4.69710650205529   -2.53366065102111   17.30554861719708
C         3.31494495662831   -3.08878384890244   18.84814039891409
H         3.57043055875204   -4.13740971722385   18.81150317327112
C         2.35257755463329   -2.63947939023131   19.73600833128709
H         1.85812084283689   -3.33831190996519   20.39460707189599
C         2.01385272675428   -1.29794320426511   19.78457177945435
H         1.26117931209109   -0.95761904180262   20.47982685443212
C         3.74477385478486    2.16855958793354   19.60402037948545
C         4.89689407824033    1.46457069684808   19.93246991639306
H         4.94505195797846    0.39635633723057   19.78052422748575
C         5.98624661408468    2.13280671863480   20.46430895680201
H         6.88004238152468    1.58045794906032   20.71524863784766
C         5.93201509063077    3.49911352685172   20.67923894364455
H         6.78452678315924    4.01370061098180   21.09815396162515
C         4.78381405887674    4.20508126904927   20.35542403381060
H         4.73859383537154    5.27154040637203   20.52107344165462
C         3.69608027633400    3.54604599849083   19.81584395379607
H         2.80580552350380    4.09171642701887   19.53975370235792
C         1.01273867027139    1.56665662725020   20.24096644984075
C         1.28345949355970    2.20427662510222   21.44630273483442
H         2.26987402861928    2.59612317328834   21.64866976070381
C         0.28348388217585    2.34398853092851   22.39490128358052
H         0.49977322317980    2.84597634819847   23.32711497234934
C        -0.98678952564194    1.85187515846728   22.14969477276685
H        -1.76606357392028    1.97458508439054   22.88794946513451
C        -1.25658381798798    1.20354093985698   20.95400428946324
H        -2.24667219185740    0.81873742482276   20.75882611139348
C        -0.26447253221070    1.05781492523734   20.00354908336180
H        -0.47518960406428    0.56578052614748   19.06504462902230
C         3.05482477951681    2.80253762099406   14.15110441050395
C         2.07511120705194    2.43471087586676   13.22902544992920
H         1.50922589377406    1.52568740540079   13.39147630472254
C         1.82120964872773    3.23011215692154   12.12892339024130
H         1.06163450599683    2.93932916834956   11.41685926152370
C         2.53622269707353    4.40437825129784   11.94325582977469
H         2.33477975209729    5.03092988041194   11.08624508397010
C         3.50232090615811    4.77585029952091   12.86170375211583
H         4.05594143718737    5.69315853080904   12.72178020052079
C         3.76447766353779    3.98016259774479   13.96511641820387
H         4.52009488646720    4.27887255939404   14.67632683438559
C         3.52275074023291    0.13764836697336   14.65100294221834
C         4.42535814378429    0.17781556787097   13.58798376448175
H         4.92349224255753    1.10681070879347   13.34294488333486
C         4.68319626619364   -0.96129792703229   12.85105388176930
H         5.38494446669326   -0.92315274997056   12.03030566649676
C         4.04010669883205   -2.15019507052872   13.16244510138167
H         4.24226089355445   -3.03939700612049   12.58318551964198
C         3.13522846541912   -2.19030802827445   14.20821502285705
H         2.62334821823357   -3.11035886742719   14.44817899278034
C         2.87359738339852   -1.05168060968495   14.95374639933186
H         2.14853755898680   -1.08042608393037   15.75294346096070
C         4.90399134382078    2.07673007459451   16.23067817279262
C         5.07008290845061    3.30633525453941   16.86615471889067
H         4.21696055104880    3.96154391157164   16.97572193013046
C         6.30610461621224    3.66733376144053   17.36992297120037
H         6.43098698533057    4.62964023300645   17.84356563649645
C         7.37815168107483    2.79522342621620   17.27729140688055
H         8.34166294225229    3.07538451634821   17.67699604907063
C         7.20883268066483    1.55822143642706   16.67962842183926
H         8.03805588912761    0.86835563010406   16.61753091385870
C         5.98037263903743    1.19848620814899   16.15377568918363
H         5.86583307549610    0.23207356626951   15.68323063792973

