89
CSD_code = LOJBEU | q = 1 | S = 0 | Stoichiometry = C42H40CuN6(1+) | MND = 4
Cu        3.82536842450412    4.72347793776264    9.84202088059485
N         5.32447103342623    3.43458005924069   10.08454910041901
N         3.99565496825652    6.66161604376435    9.61379301727470
N         3.15792310151287    3.71386351859459   11.43273173985285
N         2.67602497095356    4.85376479221356    8.16572567699585
N         4.23877920765181    8.75172293962503    9.52587400235882
N         4.56088449252176    7.65843017949210   10.18904255431519
C         3.27710855790566    7.08733203189147    8.54573798661318
C         2.55311849000366    6.12244181070394    7.75264020714580
C         3.92006027966071    2.68568627502680   11.82431873187643
C         6.42216039485351    3.47035126655420    9.33847533507448
C         5.18703842865613    2.56212859726175   11.08992887629614
C         3.49576795273380    1.84332979533149   12.84815340784125
H         4.09922480442713    1.01026750675729   13.16852767373496
C         6.19949015588011    1.65010349298536   11.37400594084470
H         6.10330615459271    0.94716889027230   12.18480787430653
C         1.98667164162039    3.96865413990015   12.00415960573586
C         3.65699440101761   10.52868087729118   11.03614942948856
C         7.34624553918816    1.66513938096802   10.59481812206948
H         8.14282671970442    0.96469982209492   10.79458055925244
C         2.27209234683898    2.09245149636509   13.45060956036718
H         1.92227225464175    1.45204251073597   14.24598428049709
C         6.88311232477471    5.79565788179997    8.59141187778784
C         7.46895813472915    2.58467012141064    9.56297173280327
H         8.35208448467169    2.61865518236881    8.94508897593738
C         3.43281288329900    8.46038734970815    8.48992090274535
H         3.05241091379261    9.20259658086454    7.82179495243595
C         1.29871919919667    5.16076538458185   11.45426872660567
C         2.04349365550926    3.90004734597314    7.50070733166729
H         2.17545671902154    2.89301370995197    7.87007765433095
C         6.71350746006788    6.80961792276893    7.65991078232098
H         7.09007519263677    7.79783034156814    7.88551219220294
C         6.39586552946816    4.52231652643306    8.29459054909757
C         1.78121374767713    6.46679745088584    6.64637207411722
H         1.70518641020397    7.49768094732181    6.34017793527053
C         6.06188708925652    6.58714681254514    6.45646565169489
C         0.31970241863473    5.01905536683342   10.46968567926761
C         5.76790330360359    4.26641696980635    7.07357780868795
C         4.64748314722805   10.05201369690674    9.99893286577058
H         4.69086935169504   10.73778413022888    9.15066409246711
H         5.63933138792849    9.94342178919256   10.44194104639995
C         3.82184705781877   10.16171700776708   12.36500468913399
H         4.68059071612396    9.57327245981833   12.65236853261542
C         1.25456485647066    4.15379468693874    6.39248488035131
H         0.75698668434629    3.34592886724768    5.88097802626036
C         1.12154122397139    5.46601834588732    5.95736509401959
H         0.51468092722303    5.70044865495315    5.09618388582899
C         2.54622029118946   11.27291952182559   10.66232005513427
H         2.41281937455979   11.56398346843265    9.62975675160579
C         1.50147031976476    3.16697635672398   13.03047348947707
H         0.54988065906629    3.38669329645787   13.48737969172264
C         5.60677630815517    5.30610991801159    6.17271429019179
H         5.11170462174002    5.11791565367138    5.23051378765121
C         7.53545782180192    6.07396896502441    9.91096264840439
H         8.23645492781220    5.28514588431873   10.17615860772481
H         6.77463450945604    6.12928303081301   10.69014686082719
H         8.06929031461363    7.02029959035375    9.88310646410529
C         1.72842879777934    6.42825779282038   11.85318425334284
C         5.86073962835064    7.69526180263110    5.46883470917205
H         4.85419060172593    7.66451366700852    5.05528107911283
H         6.56165825850121    7.58816738489959    4.64158293672156
H         6.02805645990414    8.66636153937975    5.92849007074401
C        -0.18909154507665    6.15728954584775    9.86418056294181
H        -0.93553630545870    6.05402172731795    9.08925250718946
C        -0.17997597497248    3.66038698930639   10.07998917482947
H         0.63670996531671    2.94408151451838   10.01973434680969
H        -0.69010937448044    3.69793358450617    9.12075494569651
H        -0.88857942083209    3.29699947653050   10.82450961397544
C         0.24300863919826    7.42617349889508   10.22662500441491
C         1.78471679657083   11.29310779090072   12.93740892911002
H         1.05773296251568   11.59214517698922   13.67656506512106
C         1.61396139760387   11.65609838096683   11.61200292651405
H         0.75455743072844   12.23853036233524   11.31647124235670
C         5.29481803465460    2.88349219297922    6.74125534671251
H         6.14801565514462    2.23748299404230    6.53325907687341
H         4.65519654462161    2.89516755656573    5.86248417587793
H         4.74430718185959    2.45060707281692    7.57417258784447
C         2.88992958251151   10.54732564682039   13.31319455208896
H         3.02694185515270   10.26659164778399   14.34668746605057
C         2.77556033159512    6.57861476052305   12.91396250532894
H         2.57496700328532    5.91883214259500   13.75617613259664
H         2.80989560245716    7.60472651277322   13.26943083351280
H         3.75314683207267    6.32078907918649   12.50571776575516
C         1.18481908975164    7.54526536949583   11.23754962312754
H         1.51118847602429    8.52802180384223   11.54741298593147
C        -0.31054994393531    8.63962303175993    9.54531992873963
H        -0.33904004987944    8.49533842266844    8.46673753232067
H         0.28616187143839    9.51920549518419    9.77468614600968
H        -1.33040467208399    8.82420145166531    9.88076082375879

