98
CSD_code = LOJBAQ | q = 1 | S = 0 | Stoichiometry = C50H40CuN4OP2(1+) | MND = 4
Cu        5.82313042003456    5.32303254189677    9.72090197970400
P         5.02040037951728    3.22002474832614   10.26808067573467
P         8.01993989145799    5.62775948765881   10.14139751149957
O         6.97736468882268    3.89434826029507   11.95807900647187
N         4.64149151621242    6.57567252691649   10.95713954840372
N         4.57731289411946    6.04151601113120    8.32256665398476
N         3.20966537670546    6.43907602310536    6.77027464056825
N         4.35127603408615    5.85445852911837    7.07527094416030
C         6.16871508342943    1.98810318800500   10.95260669610562
C         7.87205226274227    4.67211704372530   12.65818866666859
C         9.29462844374982    6.60901456442149   12.54139357125952
H         9.75079628184770    7.40681286373129   11.97367023528816
C         8.51138004903168    8.27485693856875    9.68483692243828
H         7.59750284484236    8.39170468906103   10.25535640027528
C         3.57839103281403    7.04519171474779   10.29828979918918
C         6.23972225556287    0.64335294662129   10.62788758709561
H         5.50516856212586    0.20803774039306    9.96675419798642
C         7.14632537424044    2.54982794940896   11.78458270423026
C         3.79685990775953    3.47006487030324   11.59105772473914
C         4.06684829488460    2.23627739546816    9.06803754786208
C         8.46744242751232    5.69311380882899   11.90971935850754
C         9.00680079641461    6.99147355363983    9.45791445951324
C         8.17393652345839    1.77991695036673   12.29569419508920
H         8.93846222614247    2.22387969207808   12.91532953651170
C         1.39784091892096    5.47919504864679    5.46846726763229
C         1.66927254144893    4.43658071979590   12.17414354924411
H         0.74496876638566    4.91087019114913   11.87803049903470
C         9.54148844354084    6.48180927739818   13.89955661238414
H        10.19438341179241    7.18640502447398   14.39119433196069
C         8.90589436475270    4.10979490026018    9.66860471433927
C         3.56711918468947    6.75793100314294    8.87714226584623
C         4.03735203508921    3.20210965094588   12.93263569945349
H         4.95065152609636    2.70910788519873   13.23156540370537
C         8.96001672752763    5.45788106508419   14.62874759961390
H         9.16035858265860    5.36695736763402   15.68503094393957
C         4.72255738080763    6.74481015382270   12.26387089082998
H         5.60861829906110    6.34485424099101   12.73816686863216
C         8.21721042243505    0.43123805984445   11.97636123258967
H         9.01547259795449   -0.17746186080127   12.37175872166298
C         3.74057298722383    7.39323958021119   12.99436787467616
H         3.83834719612711    7.50463781306376   14.06169822762214
C         3.09704039442259    1.31436977889849    9.45313021990858
H         2.87679748615703    1.17268177548430   10.50238173090485
C         2.63721386960498    7.89567425021642   12.31877357640593
H         1.85470828244868    8.41166895388062   12.85370200363703
C         2.55153887829306    7.72550160588849   10.94835328747244
H         1.70870356850080    8.10241830784575   10.39163134229328
C         8.11162612650795    4.54781857962507   14.01482685934143
H         7.63902182386915    3.75968656741901   14.58218273389934
C         7.25882303819451   -0.13435618365114   11.15347549753167
H         7.30990642674360   -1.18425008115016   10.91100650713638
C         2.60502306790120    4.09151641159989   11.21979721021538
H         2.41709668513757    4.29234878862855   10.17164811635601
C         2.66768251775294    7.01904880235756    7.85820044265266
H         1.73460979840968    7.53963448164092    7.82830794839275
C         0.26936966977846    5.85981728774113    4.75687664684933
H         0.27667221705718    6.77688600438971    4.18611221217419
C         1.91798254092034    4.17293425537834   13.51245825096298
H         1.18906169446205    4.44503263738167   14.26047093600391
C        10.34651439313057    9.20003474549692    8.45581998678464
H        10.87342081969559   10.05895513749172    8.06912171748902
C         2.41937056768726    0.58729892873292    8.49179924035317
H         1.66778705277296   -0.12794887051963    8.79163960014812
C         2.70463956074177    0.77114395990839    7.14713599915573
H         2.17454262765031    0.19933078433132    6.40052952682826
C         8.87901312131810    2.05411470282655    8.42139139984846
H         8.39427996360375    1.39345076460608    7.71861101573218
C        10.08767010511007    1.69511485178022    8.99451832685213
H        10.54703711361971    0.75252053405829    8.73915315489052
C        10.12411134123585    3.74925245288961   10.23737371829751
H        10.60639078275413    4.40965523959911   10.94569496208687
C         8.28998337687319    3.25879774471005    8.75771610217231
H         7.34187924271895    3.55587248308494    8.32366133594090
C         4.34238295235639    2.42636669332841    7.71762408686283
H         5.08172109956292    3.16159004843693    7.42546035901356
C         9.18523407740713    9.37586277560000    9.19343362515794
H         8.80782709104486   10.37024774742577    9.37999727707147
C        10.15918388324413    6.81728169626775    8.70222149799106
H        10.53092052835881    5.82278491548020    8.50135785438501
C         3.09724299162023    3.55172938878390   13.88663747181542
H         3.28534526775478    3.33584800595895   14.92793292199067
C        -0.86204941461723    5.06206847658936    4.76882125530331
H        -1.73368857739088    5.36229669408197    4.20814188454213
C         3.66572714116377    1.69066779974292    6.75987166956858
H         3.88300849528066    1.83690572901993    5.71218198030637
C        10.82625828503490    7.92474335196753    8.20701493739207
H        11.72440699426407    7.79104018982770    7.62326387602330
C         2.64358312375636    6.33619446818442    5.45214753081174
H         3.41318862335977    5.88414710251309    4.81928787507204
H         2.41425575953628    7.33636042888630    5.07407085970024
C        10.71071146981356    2.54471113242477    9.89520446592962
H        11.65578692310185    2.26478050338183   10.33607215472194
C        -0.87628618752562    3.88604497556880    5.49933679751364
H        -1.76021429079576    3.26747798662428    5.50987652147007
C         1.38067695590601    4.29627466715459    6.19701493205226
H         2.25792302031566    3.98522401225420    6.74691743949359
C         0.24685033480589    3.50454990187745    6.21400784750272
H         0.24744634323291    2.58778146297260    6.78422800477117

