29
CSD_code = LOJDOD | q = -1 | S = 0 | Stoichiometry = C7H21Mo(1-) | MND = 7
Mo        5.38903330172958    9.04602354222276   13.00418805496145
C         4.87683283082234   10.27305158690879   11.21731742461154
H         5.29149714342557   11.29249341091344   11.24696495615910
H         3.79452499635342   10.41149172708178   11.07066175693702
H         5.23925281585712    9.84718407771159   10.26896739972126
C         7.43264872084510    9.48861711374324   12.22968748100941
H         7.56348234769278   10.57937275127543   12.17868990034480
H         7.50704676855021    9.12091778039104   11.19591456043881
H         8.30967919903590    9.10169619161964   12.75344061046116
C         4.29324593688215   10.72538156495811   13.97937360527713
H         4.16001690901396   10.73241520534087   15.06354916815514
H         3.28410577468253   10.78820121793484   13.54680418156266
H         4.79604654764356   11.67027597810128   13.72670883978706
C         4.16823628264731    7.57770902197520   11.85276920393500
H         4.62366821738829    7.43828167419261   10.86150938558554
H         3.17148839742991    8.00750047988426   11.67610766866695
H         4.00021716028450    6.57551385933235   12.25352006590386
C         4.12846065151679    8.01906338718925   14.59701408281436
H         4.17847562493430    6.93092707084293   14.64911220404289
H         3.09305510853445    8.25956268543978   14.31297091797618
H         4.24375094699380    8.36330750280052   15.62528028203765
C         6.60247821931782    9.46955760847677   14.88286877916632
H         7.50482350346245    8.87756947918252   15.03949163733523
H         6.07285823170606    9.44691675953366   15.83589079751686
H         6.94230353929998   10.50782346070593   14.75195588383359
C         6.50902371387764    7.08254846699643   13.27050591438683
H         6.79210213512644    6.79658021264706   12.24644832519965
H         5.94839009100374    6.23776836626549   13.67198885617347
H         7.43825488394225    7.10984781633232   13.84059805599935

