25
CSD_code = LOJDIX | q = 0 | S = 0 | Stoichiometry = C6H18Mo | MND = 6
Mo       15.13644665036428    5.69669608152565    9.71559814054193
C        15.40375396062986    4.18634727982228   11.24738627388077
H        15.35389057833862    4.73899052029182   12.19873381194066
H        16.39818892759022    3.72141773212247   11.21025191663847
H        14.67998547424634    3.36946252728493   11.32926147681215
C        16.81241911861014    6.90480114464036   10.37149367166435
H        16.70023333577450    7.96457695156074   10.10597149168360
H        17.82718420503947    6.61563658973213   10.08058646391366
H        16.78072579461993    6.85443264317740   11.47127047401227
C        13.66220347582413    6.82505028190268   10.83463328504332
H        14.15754895800390    7.06536304242004   11.78856012538224
H        12.77404160981367    6.23051073346010   11.08763878191732
H        13.29740239203733    7.77501409907035   10.43121689114540
C        14.92202954345151    3.80209688758070    8.60013259276461
H        14.00329924411926    3.32891387072218    8.96849682822998
H        15.75340576141907    3.12895964226671    8.83778001892527
H        14.84452888902659    3.82031735889345    7.51597143486858
C        16.27287149323115    6.03768800854092    7.85218130754515
H        15.85864319498294    5.71379011224002    6.90074944141448
H        17.22697869062544    5.50927612967828    7.97057640977251
H        16.50206622272515    7.10348613412871    7.74104476000063
C        13.58137230435262    6.13111843394003    8.20776792168551
H        12.59311068525884    5.86545676216611    8.59962527667280
H        13.64806399272062    5.68338616309846    7.21943426413585
H        13.59120549719505    7.21771086973495    8.05683693940622

