63
CSD_code = LOJFEY | q = 1 | S = 0 | Stoichiometry = C27H29O4P2Ru(1+) | MND = 8
Ru       -0.82863357168810    8.55397992241514    7.17225710107563
O         1.07486643944118    7.23224946746321    5.28392456492450
C         0.34517823660085    7.77600133580304    5.97904188827707
C        -0.36993262600985    9.53893179504840    9.12175018168284
H         0.06526468065205   10.51180849492508    9.31481863066142
C         0.33711511852465    8.31010739977671    9.07639274298320
H         1.39910783274689    8.18290481160095    9.24088727178108
C        -0.61741243418398    7.25718141477861    9.00198584329982
H        -0.39946928162588    6.20394158331922    9.11566358747764
C        -1.90919330442644    7.84473495114150    9.01426966747618
H        -2.84444656295813    7.30404235814136    9.08388197532207
C        -1.76409200878099    9.25148533444528    9.06754326575431
H        -2.55685711097617    9.96016635242677    9.26524127058470
P        -0.66595199443702   10.57997868362020    6.05307915434887
C        -1.22545600514288   10.65146814488076    4.32677545996557
C        -2.34874447379475   11.34460092702359    3.89419925454862
H        -2.95168847250706   11.90355210275523    4.59468606289428
C        -2.68638592255760   11.33173912768507    2.55039184617681
H        -3.55714117883139   11.87482420595675    2.21441163297729
C        -1.90985399622988   10.63549669983214    1.64025434977515
H        -2.17771239772966   10.63186668541544    0.59468868937828
C        -0.78313018045187    9.94904157921842    2.06980224483646
H        -0.17237226461467    9.41339400554207    1.35919766281231
C        -0.44149322969835    9.95438237043704    3.40706000409519
H         0.43469193796522    9.42175906214380    3.75462167870529
C        -1.59681612279170   11.87312863513449    6.92234606802528
C        -0.98144334728203   12.99421709149510    7.46967533961062
H         0.08538620315531   13.13282159536409    7.36796538208092
C        -1.74111698598396   13.93435321692274    8.14544692604663
H        -1.26141485125870   14.80447963405537    8.56691010010790
C        -3.10839605155842   13.76175627809938    8.28189096140851
H        -3.69562410609265   14.49914768578241    8.80699155479236
C        -3.72257794920456   12.63686867405584    7.75129729344627
H        -4.78734584347460   12.49809632443325    7.86593145421332
C        -2.97127051765681   11.68963810408305    7.08125125612802
H        -3.43491471955010   10.79533991852561    6.68375246202171
C         1.01907140154748   11.23330349824588    5.89103929809710
C         2.09510065860144   10.60881515041926    6.50964538226436
H         1.92802079416041    9.71081739640816    7.09425421660974
C         3.37128478419841   11.12567011987206    6.36646120271131
H         4.20666376539857   10.63774696205834    6.84510024792040
C         3.57554726602007   12.26528614143354    5.60631345728276
H         4.57093769622753   12.66624079520959    5.49388173344775
C         2.50436663632303   12.88939622643422    4.98375671693503
H         2.66622619569046   13.77458135249754    4.38790502494324
C         1.22844205611687   12.37750047964348    5.12108123575487
H         0.38837495664985   12.85497717764249    4.63460841874018
P        -2.55024704647100    7.80636982429272    5.89343551189163
O        -2.18520620678415    7.84512075764919    4.32744524616318
C        -3.07083638759658    7.38430206002253    3.30130973004263
H        -3.69383331541681    6.55837767075498    3.64964880036534
H        -2.44265656943829    7.04969974606947    2.47683305931523
H        -3.70165307595806    8.20739612951705    2.96390000183881
O        -3.93183558683056    8.56181283186282    6.10838030180581
C        -5.25630228794668    8.03045177776307    5.95272605926203
H        -5.27275184219216    6.95583687319727    6.12154394766337
H        -5.62959960058512    8.25671831555965    4.95400111616469
H        -5.87657918658700    8.52906369914349    6.69691824570610
O        -3.02363230866189    6.28641382415697    6.14232151633508
C        -2.07241481405415    5.23358385584376    6.03081349823170
H        -1.69296241260426    5.15830694464385    5.01048091616560
H        -2.59373092508603    4.31693966569444    6.30221444683821
H        -1.23181758344667    5.39938476174081    6.71049582821080

