159
CSD_code = LOJGEW | q = 0 | S = 0 | Stoichiometry = C62H60B2F30N2P2Ti | MND = 4
Ti       -1.93730446607731    2.69046462276697    5.32835173070509
F        -8.18817806190382    0.10836816011031    6.65416744251350
F        -9.10569699398223   -1.07319900777222    4.45838921697900
F        -7.50942213841232   -1.36506651405176    2.25720379657104
F        -4.95724143071615   -0.39687746862448    2.32000303868610
F        -4.04470996902837    0.92780353656571    4.49667630393218
F        -7.72394696414847    2.79490509934842    6.72818795250653
F        -9.41387436515231    3.54682329765154    8.67901170314368
F        -8.94582418661531    2.79822161771418   11.27047217320430
F        -6.71367994433569    1.32463624157709   11.85452512389994
F        -5.03357414511738    0.57741379262295    9.90913858352756
F        -6.28319868149924   -1.35171312790990    8.11443560224134
F        -4.87957076758306   -3.60954830360510    8.37726809385530
F        -2.24363410903337   -3.70018750086308    7.64168326754530
F        -1.05708168333086   -1.40826837804045    6.67516120256864
F        -2.39404911560294    0.88106680683106    6.55972385383666
P        -2.94347308762937    4.55588908221602    2.72763979319664
N        -2.31730927793794    3.74099642326904    3.91900679277481
C        -4.68857108772582    5.17326675117075    3.28706862814130
C        -5.34241821457648    6.24333167269938    2.41890875096251
H        -5.44300689364287    5.92724969864290    1.38584997617372
H        -4.79508329764875    7.18092593615773    2.44304451241996
H        -6.34224897538025    6.43838563640812    2.80673140558056
C        -5.59995888314594    3.94512285015400    3.33814926071470
H        -5.90821345301399    3.62985615203447    2.34589067448115
H        -6.50609348456983    4.17631097189559    3.89728394992276
H        -5.09262547190936    3.12667563244335    3.84498918762995
C        -4.54224417427639    5.68306007041303    4.72464874606171
H        -3.78036566535353    5.09376669096029    5.24474174902698
H        -5.48908932806888    5.57695127212231    5.25174718518507
H        -4.26981697755251    6.73225102907488    4.76265667580885
C        -1.84653034298071    6.08230684941149    2.28347485411298
C        -2.15846030373155    6.75803403430522    0.95236093927048
H        -3.20525616268779    7.03367233729236    0.87256319162264
H        -1.89371307616273    6.13634425429143    0.10291234133759
H        -1.56713144661369    7.67112174142173    0.88176514140191
C        -2.01473285580507    7.10090742561976    3.40870132257184
H        -2.96095726794058    7.62776873351327    3.34576374956317
H        -1.22322149449189    7.84728408710136    3.35167796074971
H        -1.93710233316191    6.59253767046739    4.36542822354802
C        -0.38324043185940    5.64084228075309    2.32162093421887
H        -0.20746506028828    5.06615598404039    3.22785106142886
H         0.26096806426052    6.51880911546990    2.33998442951033
H        -0.09677168188251    5.04745168042986    1.46144333851577
C        -3.10723382372319    3.45858532259885    1.14549707786527
C        -4.05239158551396    3.99723696995509    0.07602313088207
H        -3.78657613167962    4.99961365359912   -0.24234901422813
H        -5.08513017157988    3.99737382428407    0.41201222842189
H        -3.99585406015250    3.34482324902872   -0.79508697618120
C        -1.71951086391208    3.26114705251693    0.53330167342554
H        -1.34746727480993    4.15742074998540    0.04784088910907
H        -1.77026230997358    2.48224331925588   -0.22696819064172
H        -1.01108725580009    2.93084741879135    1.29065617729936
C        -3.57730164566827    2.07860556166062    1.59377623593150
H        -4.63750381690646    2.05938963132698    1.81505568742460
H        -3.01849250451323    1.77372080205741    2.47546133770956
H        -3.39696716806284    1.34807178535908    0.80724389240422
C        -4.55707157699873    2.59253215091726    6.77294882438034
C        -7.36794159291803    0.05048744835492    5.60234422446962
C        -7.86314670919505   -0.58728583434377    4.46644074883428
C        -7.05754339853983   -0.73805694244533    3.34519540521696
C        -5.76395747622849   -0.23070938588099    3.37484468313351
C        -5.32731400894394    0.43092970991131    4.51217537876626
C        -6.08746046879794    0.59522023148539    5.66413274477373
C        -6.37536739465448    1.55880286578805    8.22245925536318
C        -7.48621351772643    2.36210858950848    7.98181968183700
C        -8.36108882938896    2.77497692597608    8.97664387307424
C        -8.12179362946045    2.40402186840343   10.29481571502032
C        -6.99370925340648    1.64869509567356   10.58586647697339
C        -6.14520468995059    1.25341123025328    9.55732523010361
C        -4.41468357649761   -0.12785494627312    7.35103725876034
C        -4.98504073449003   -1.32097280044246    7.80162147698239
C        -4.27409097589041   -2.50888543443115    7.93197710841221
C        -2.93176613540480   -2.56200632131190    7.56457971830792
C        -2.33120440026213   -1.40305471446490    7.09751355189626
C        -3.07454844798791   -0.23273195081552    7.02774343608517
B        -5.35419222113702    1.17858244624451    7.01290587795430
H        -3.84425822265870    2.63801126615452    5.91834909519203
H        -5.28358317519717    3.38684594742148    6.61236068518783
H        -4.00141945661642    2.83788641612306    7.67794724487622
N        -1.55717744753911    3.74110300560531    6.73758465907668
P        -0.93096072764084    4.55596667402652    7.92894980938883
C         0.81405180178286    5.17360490611346    7.36945857136068
C         1.46794947540629    6.24366938561153    8.23759381246352
H         1.56877570316984    5.92748495161294    9.27059563941573
H         0.92046576731445    7.18117775496219    8.21368288471540
H         2.46768075915488    6.43893864196644    7.84961767729427
C         1.72562912835982    3.94560486021065    7.31812334105454
H         2.03409843992929    3.63033243847174    8.31031559813129
H         2.63165180253760    4.17696568742298    6.75886980376858
H         1.21834144862759    3.12709397289057    6.81130524073852
C         0.66758851172215    5.68349593490063    5.93194068602251
H        -0.09417793979225    5.09407440855772    5.41184783609289
H         1.61442383577884    5.57766590118890    5.40476561925828
H         0.39489292897419    6.73261482320916    5.89404651973393
C        -2.02788204651361    6.08232837917230    8.37338847866281
C        -1.71593678789579    6.75783561566027    9.70461407164172
H        -0.66916166005282    7.03355008135397    9.78439458150330
H        -1.98057452902682    6.13595480617308   10.55395226958232
H        -2.30734073017219    7.67085780971978    9.77543454436729
C        -1.85985166446422    7.10119108381907    7.24837268522731
H        -0.91363587446513    7.62807182204541    7.31129736521669
H        -2.65137625652633    7.84753063161392    7.30569299596083
H        -1.93761666675132    6.59307099568970    6.29152740235224
C        -3.49112201773613    5.64070107498943    8.33523921348190
H        -3.66695360170981    5.06628833509385    7.42884137448644
H        -4.13539497246654    6.51862554031813    8.31723640863262
H        -3.77745389146312    5.04699893462095    9.19524737368545
C        -0.76687053669845    3.45859700158121    9.51101043862650
C         0.17824905696468    3.99729446526846   10.58050865290884
H        -0.08776688663772    4.99955412177053   10.89906471891841
H         1.21096289036503    3.99773668283665   10.24444317254113
H         0.12193408526605    3.34473694889773   11.45152247228250
C        -2.15460120916117    3.26082660712029   10.12305619073931
H        -2.52689731622441    4.15700541377310   10.60850481097032
H        -2.10362145619660    2.48198566019201   10.88337857048750
H        -2.86292758026400    2.93031914777652    9.36565580292210
C        -0.29654586856687    2.07874909539529    9.06260207439756
H         0.76361000400735    2.05975904455340    8.84116410902135
H        -0.85541241860994    1.77376976776092    8.18100438363497
H        -0.47659263685923    1.34816368011563    9.84913008871311
C         0.68279941523617    2.59201365167530    3.88439222722412
B         1.47976346675440    1.17829486772015    3.64330832688762
C         2.21323392302209    0.59558143915514    4.99212496597917
C         3.49360887919584    0.05055846792675    5.05387780868672
F         4.31376276416268    0.10819272814366    4.00198195673877
C         3.98871632344010   -0.58741291462631    6.18975123127431
F         5.23121256109067   -1.07349954544136    6.19779297700306
C         3.18309517696176   -0.73810503064772    7.31100488629481
F         3.63494720212533   -1.36511851466877    8.39901509123056
C         1.88955100679624   -0.23055213196818    7.28135190098585
F         1.08288705259148   -0.39643846427286    8.33627313637192
C         1.45303192105912    0.43132801111747    6.14402394520978
F         0.17071242016133    0.92913382421655    6.15948835729453
C         2.50084573083421    1.55843839889202    2.43369078283355
C         3.61167904362006    2.36180889051330    2.67407395872070
F         3.84969410365809    2.79458389377341    3.92766361638775
C         4.48624132238057    2.77477694662460    1.67902394735523
F         5.53909499590503    3.54662286715783    1.97641437150003
C         4.24657998775159    2.40388726002026    0.36089898141907
F         5.07033333281349    2.79813812551189   -0.61496868380515
C         3.11840014586218    1.64859289382235    0.07011645778171
F         2.83798769640655    1.32461573798367   -1.19848001288425
C         2.27022863355365    1.25320623542012    1.09887708153768
F         1.15845487309069    0.57729442046623    0.74734390586693
C         0.54007643169158   -0.12804374939770    3.30542130278536
C         1.11038162016118   -1.32116267256264    2.85483201317150
F         2.40846601686830   -1.35186789933492    2.54171314112085
C         0.39946278625209   -2.50911697362691    2.72480779012953
F         1.00488145779622   -3.60978598368393    2.27945502806434
C        -0.94276422902565   -2.56226714678269    3.09255767300498
F        -1.63085355904855   -3.70049426617281    3.01575195853865
C        -1.54326312924456   -1.40330018373804    3.55967348906246
F        -2.81729671097052   -1.40852876431573    3.98230972347881
C        -0.79995748635683   -0.23293584957341    3.62913329985270
F        -1.48036602976631    0.88090324142935    4.09720133707900
H        -0.03004897092171    2.63703345040935    4.73910527847630
H         1.40922782203999    3.38646384885948    4.04476484345340
H         0.12713727937967    2.83731265594701    2.97943424772939

