55
CSD_code = LOJNAZ | q = 0 | S = 0 | Stoichiometry = C20H22Cl6N4O2Pt | MND = 6
Pt        2.25974381559437   -2.20219500938428    1.21232584560398
Cl        1.96287958907178   -0.52865157731814   -0.44598344795898
Cl        2.14728781798693   -3.90163942858271   -0.43593017640860
Cl        2.38900226426368   -0.50385522879994    2.86714016247890
Cl        2.54185002690557   -3.87789629465478    2.86359958791879
N         0.30252152107435   -2.28370998720783    1.65097649186205
H         0.12435288047646   -2.24032727652050    2.66171878837306
C        -0.77223787955864   -2.32803510141534    0.96244666903294
C        -0.84052421853769   -2.39860664444401   -0.51444143460964
H        -1.87603871144345   -2.44852261950257   -0.83697690306205
H        -0.28487389814641   -3.26920538983020   -0.86294553729334
H        -0.34901901154428   -1.52310061771320   -0.93985930955257
O        -1.97739881256712   -2.31296205924780    1.53859770251617
N        -1.93577122074494   -2.21728915233583    2.93462886566173
C        -3.03281536011584   -2.17153883617784    3.56163608858902
Cl       -4.56167260990540   -2.23857639398054    2.74618912749235
C        -3.02022507879366   -2.05581524366366    5.01024482028703
C        -4.19700894165557   -2.10379626668115    5.76011652940736
H        -5.14694264624999   -2.23130426240939    5.26493050001630
C        -4.15277915381799   -1.99381570161701    7.13392544698529
H        -5.07129352766326   -2.03381248691794    7.70123530220499
C        -2.94288215894254   -1.83239278248140    7.80391633068856
C        -1.77190268131655   -1.78249360655524    7.05343352954399
H        -0.82311846107693   -1.65542852013910    7.55302644237080
C        -1.80214420616735   -1.89159864795162    5.67950802399506
H        -0.88840923650498   -1.84625514957618    5.11074806439988
C        -2.91685351898536   -1.71051173030381    9.29337494217220
H        -1.89688733203749   -1.66653084503260    9.66484575399966
H        -3.42256151328357   -2.55862688773223    9.75229428632631
H        -3.44004685846519   -0.80703643797004    9.60499532678237
N         4.21389206954974   -2.07992313379147    0.77287154620194
H         4.38422648523226   -2.00477813010982   -0.23762614873773
C         5.28831235510325   -2.00749918143288    1.45936673576316
C         5.36944826745434   -2.08753498704284    2.93519079759921
H         6.40546793745891   -2.02630277006683    3.25427145934878
H         4.91409226103229   -3.01722107279603    3.27592656460801
H         4.78654600240923   -1.27549302692898    3.37118425322894
O         6.48140125588671   -1.84655690499102    0.88014837450701
N         6.41898539761726   -1.71531108353340   -0.51232169096154
C         7.50045691012594   -1.55132560113987   -1.14567268262028
Cl        9.04020321461439   -1.51358179030131   -0.34932458038990
C         7.45899715666039   -1.38100661211142   -2.58842906147661
C         8.62057582951282   -1.39255541280835   -3.36030139211641
H         9.58021850365835   -1.53553360863394   -2.88831902872838
C         8.55008374433861   -1.23148521684237   -4.72991699974009
H         9.45997972309001   -1.24590660627825   -5.31215216470724
C         7.32883075934800   -1.05249857067327   -5.36890424872770
C         6.16972885372522   -1.03870430298911   -4.59398634990070
H         5.21289831826996   -0.89733076176742   -5.07426603844182
C         6.22577545946776   -1.20006952730696   -3.22771349458892
H         5.32325751158900   -1.17914040938708   -2.63953949565137
C         7.24690381698532   -0.86512227039922   -6.84948868861650
H         8.20490432338017   -1.05951253620278   -7.32420974338376
H         6.94855633037633    0.15767475885975   -7.07896661882605
H         6.49822663523115   -1.52985105513528   -7.27633912353751

