125
CSD_code = LOJNII | q = 0 | S = 0 | Stoichiometry = C32H82PdSi10 | MND = 2
Pd        6.75788932588870   14.13419913090774   16.25386821874335
Si        4.54854656011569   13.77838839271926   16.86740003008915
H         3.81318799428184   12.95607135584159   15.84536740384078
Si        6.40504005795353   14.90131217188335   14.11142067764182
H         5.38410019731946   16.00470152615041   14.02533980224760
C         4.65329076687337   12.72065322349935   18.51859793896972
C         3.25580081847655   13.00461531797495   19.08112540762156
H         2.51800764155159   12.44318009004111   18.50917378101587
H         3.17493584775620   12.68607349465651   20.12389337249775
C         2.93866423503248   14.49110697985064   18.96506298515478
H         3.56797436798934   15.02356149199992   19.67112422103080
H         1.90443226210288   14.67062765814788   19.26436021272628
C         3.19354283437902   15.01155947461398   17.53240747657637
C         6.36461676607967   13.90931406585639   12.43197455310383
C         7.37729416886888   14.73398682749315   11.61769227061671
H         7.70067294295890   14.18965385810358   10.72683266057753
H         6.90685657909759   15.65653255986294   11.28272195436233
C         8.58977619969415   15.08944676081757   12.47082808809152
H         9.24821347129406   15.76121936958292   11.91461073995660
H         9.15187607824109   14.17753987560825   12.65878676297786
C         8.15480367223982   15.72414425721480   13.80676038491187
Si        6.02766785956158   13.25733941567865   19.77071658819739
C         5.64772176638709   14.70719128071879   20.97375928772344
H         6.47930676072230   14.81484134318111   21.66605019166422
H         4.76776908226966   14.48696249998243   21.56966888327595
H         5.49710428576451   15.67165807382111   20.50298516320371
C         6.49726066214351   11.90351472599349   21.04211342720734
H         6.85191012027857   10.98862782482323   20.58400588828910
H         5.65403655413646   11.65537401835034   21.67727704263622
H         7.28776139067236   12.26862372756622   21.69150090763825
C         7.67068904182167   13.68066842400443   18.89177342804089
H         8.18629469567123   14.50718095042105   19.37579919748918
H         7.48930742694966   13.97127294453361   17.83565239720492
H         8.34545030133834   12.82807662694643   18.89417019429434
Si        4.82539073057060   10.85372741144812   18.08364370100054
C         3.67768042931606   10.25355583566236   16.67859510530656
H         3.75563642942983    9.17557370114518   16.57037146495006
H         3.91916059168121   10.69819899913522   15.72214264445060
H         2.63887628510907   10.47824054614821   16.89632142473106
C         6.63773367397769   10.55172598203483   17.56694612799506
H         7.27789447074419   10.34492557911214   18.41737172200393
H         7.03444597082044   11.43218588455477   17.05975827419611
H         6.72234171642311    9.71302476053181   16.88460574976182
C         4.29863301705901    9.71635089603758   19.52762723041702
H         3.23887909081419    9.83184271054119   19.73093439370387
H         4.82983852186559    9.90704872790161   20.44967551596152
H         4.46542629156632    8.67655577980646   19.26382760812864
Si        3.81624795464734   16.83083722132969   17.62438631579647
C         5.71431787629579   16.84600940211862   17.77771594484524
H         6.06396272925944   16.17432657247828   18.55718229482233
H         6.09533992719011   17.83830180032021   18.00096013356715
H         6.13901739983553   16.52707081120668   16.82120386867726
C         3.09157603645064   17.73509124196127   19.14960863502494
H         3.25257791266132   18.80591071569975   19.07208093003756
H         3.54551908558666   17.40729656373162   20.07888989015624
H         2.02343269099068   17.57124750438683   19.23579043352311
C         3.41840159024176   17.90719494383312   16.10177262175723
H         3.89057411364635   18.88028131689920   16.19720297676043
H         2.35460666064164   18.07386627885900   15.98439592808284
H         3.78495703679623   17.45036723383746   15.19008317116860
Si        1.56679582898303   14.87563475509101   16.51386457564056
C         0.24574398750328   16.06720230864380   17.22264297927893
H         0.57794772816176   17.09874701610602   17.20255818728998
H        -0.00770315664454   15.82553608246535   18.24984158024389
H        -0.67075637824568   16.00694111344056   16.64384023270169
C         1.86079207187061   15.29482504238583   14.67886049807491
H         1.29826609970889   14.62985169961885   14.03351756656827
H         2.90847283222686   15.19182167863916   14.42212856847689
H         1.55399373009570   16.30640600898269   14.44165559846709
C         0.74343059623043   13.14969420572904   16.56909352804981
H        -0.16093016695750   13.14705312920047   15.96686381672368
H         0.45750533160526   12.86387412924992   17.57618633559463
H         1.39879415864426   12.38164892403028   16.17428083532677
Si        6.93280143300551   12.06070831684895   12.52187884426689
C         8.81520121025868   11.71368453868443   12.36788143471833
H         9.39696733894801   12.05705581433724   13.21355092082482
H         9.23165830776606   12.16307562928752   11.47156045090974
H         8.97229330811561   10.64094883747740   12.28761583611844
C         6.30548247364119   11.24841151930415   14.12517238062585
H         6.94674956293310   10.42773691675276   14.42920718952967
H         5.31151573250907   10.84231885646958   13.98061353662855
H         6.24414275208304   11.96375363684456   14.94882051071248
C         6.28088612952477   10.98604054302379   11.07880135206350
H         6.66642750371167    9.97496682240352   11.17110562963185
H         6.60174186729702   11.36529921467934   10.11532978442017
H         5.20081121250703   10.91772771588971   11.06403585270904
Si        4.63154989511234   14.04041610521470   11.59550668946607
C         3.91299492571232   15.81203084020424   11.54209299539840
H         2.90125726494551   15.78842868598738   11.14806946382951
H         4.49468651116133   16.45463555091645   10.88863071909477
H         3.86764505065080   16.28127528149511   12.51637905533937
C         4.69963349628597   13.58162732267327    9.73326493110774
H         4.42837269660689   12.54847271860005    9.55341103408956
H         5.68882984377143   13.73662026124234    9.31611501363969
H         4.01070846845388   14.19839949957745    9.16390596175113
C         3.40460326278288   12.90468366883146   12.50867421639642
H         3.52458728483589   12.98655198855935   13.58331184222142
H         3.54497508936108   11.86430397556041   12.23964507859864
H         2.37999840167884   13.16476171141486   12.26658638406293
Si        9.41680170106189   15.20556387887168   15.17452752632047
C        11.21729007886638   15.43440085962728   14.57455722592800
H        11.50429377453792   16.47715466072347   14.55821950832865
H        11.35739984337282   15.04082936932549   13.57442378371859
H        11.91132145920943   14.91672387098700   15.22916644608503
C         9.26104103710510   16.19929845271950   16.80224543757547
H         9.94748049990081   15.80752348095490   17.54855535367504
H         8.25518792279013   16.16539907324813   17.21933402856110
H         9.51610213914930   17.24129079196209   16.64447332901434
C         9.39352761155520   13.33820184169683   15.66298689374121
H         8.40157038477417   12.86921072267393   15.55883371765687
H         9.73611348995698   13.21299848633181   16.69016062733712
H        10.07759594392747   12.76851697272572   15.04027307789435
Si        8.04165485825848   17.63509710972889   13.59690011587040
C         7.16428738039354   18.55179877145993   15.01875841751512
H         7.66067947493951   18.41858354931653   15.97127222581027
H         6.13890205124102   18.22183808895152   15.12972915366685
H         7.14516130489483   19.61776680459356   14.81185146223014
C         9.78400804923355   18.40604779222994   13.42605918395707
H         9.71009965738968   19.41901982248797   13.04290251200654
H        10.41422805846068   17.84706570162025   12.74313727829331
H        10.29665276990272   18.45827413846490   14.38010831639232
C         7.10267832153409   18.16490223117351   12.01854859274257
H         6.08404272507530   17.79477426237345   12.01324786265202
H         7.59234504267480   17.82439331285485   11.11214789187942
H         7.05368976341712   19.24897572747091   11.96726297409512

