70
CSD_code = LOJPUW | q = 0 | S = 0 | Stoichiometry = C27H34O6RuS2 | MND = 10
Ru       -0.60900726234937    3.31499874015264    9.84710102202694
S        -2.38284449706285    1.22016774063900   11.39221749660912
S        -2.90088825782690    5.48642659194515   10.70305440699950
O        -2.02339863790497    2.66435505162926   11.26082546080402
O        -1.22218350070423    0.38666767398219   11.09910426986297
O        -3.57398643710946    0.85753175495755   10.67045092547116
O        -3.66321623595496    5.08969302493492    9.54389811052419
O        -2.89604443337972    6.89941956520544   11.00921124559630
O        -1.44433950020954    5.09297681163936   10.56778292499212
C        -1.42152840808751    1.77852693876855    8.49115335165653
H        -0.63874253863182    1.54667128051391    7.77142849817385
H        -1.95144997951613    0.91681933257643    8.87617331093944
C        -2.11870031943774    2.98893420143708    8.35682860325350
H        -3.14952273552800    3.11145064013773    8.68231866532293
C        -1.34516881609217    4.09444781220217    7.95115703135343
H        -0.58944173923817    3.95310167732731    7.18142938540280
H        -1.83164795051374    5.06336951648233    7.95593102191276
C         1.27966509083897    4.37925550988232    9.80374578631275
C         1.47148792862941    5.80136742679330    9.38900893613463
H         0.62536373632107    6.39408334453055    9.73706227671032
H         1.54510324871172    5.89683622800852    8.30901089488735
H         2.38084501355113    6.20180931766328    9.83967779220268
C         1.43728929508313    3.19309897998195    9.01188785430216
C         1.99777418203475    3.12426420345577    7.62264803598122
H         1.54771048412786    2.32067388819357    7.04297387817794
H         3.07018690910123    2.93023119375008    7.68522970673721
H         1.85471116724897    4.06122487925154    7.09041182174375
C         1.30477304905945    2.06027862688045    9.89828979303580
C         1.55410093302773    0.62434229778791    9.57682333616654
H         1.62288448766206    0.45522646342139    8.50612324908348
H         0.74497028813999    0.02179694382017    9.98907343782106
H         2.48798898768565    0.30366052311882   10.04101930464277
C         1.11663525485468    2.54633726744286   11.22281748033611
C         1.14477101561800    1.67365676642384   12.42911759823146
H         0.36343389354716    0.91705701118891   12.34453428089800
H         1.00250732460150    2.23966670406090   13.34516298038594
H         2.10718568000292    1.16142715064139   12.47624276141194
C         1.05334349292996    3.96926407798462   11.16911156392379
C         0.96208649905761    4.92513013681981   12.31088740645563
H         0.11473152322730    5.59381518588902   12.14312162945259
H         1.86928132967321    5.52836511303124   12.36781877523126
H         0.81881016487020    4.40738041412254   13.25616573342650
C        -2.69283521754367    1.03286999746363   13.14120302078622
C        -2.02248869940949    1.83119964835098   14.04215199386312
H        -1.39120917730744    2.61963208401353   13.66616640090499
C        -2.19995894741124    1.62694364625600   15.40025250865004
H        -1.67861241251444    2.25293651106111   16.11028135190934
C        -3.04556355710789    0.62538369878914   15.86003272432256
C        -3.72060558666316   -0.16354234085427   14.93219332221813
H        -4.38593986680231   -0.94006033037178   15.28158101414375
C        -3.54430012586982    0.03642543913443   13.57514210586191
H        -4.05842150173882   -0.55903017371989   12.83794712112603
C        -3.23439993244579    0.38510577362712   17.32717782211211
H        -2.78081775453874    1.17841254168644   17.91534260535646
H        -2.77492493743573   -0.56047921127154   17.61369408033188
H        -4.29296484794593    0.32611558644518   17.57250667655508
C        -3.58667751726925    4.67183302312983   12.13102406979209
C        -3.18625739745092    5.07273630519000   13.38657609326365
H        -2.42443557358724    5.83215998231348   13.47269036262095
C        -3.79086732391357    4.51845942007682   14.50303095151571
H        -3.49075769740735    4.83515738156432   15.49217187606998
C        -4.79468340613689    3.56719242079548   14.36337357892898
C        -5.17219916864695    3.16912524650321   13.08472825133079
H        -5.94592954632987    2.42506066383974   12.96506027818238
C        -4.57581497862612    3.72524146454158   11.96751327175995
H        -4.86382018290351    3.43918720872720   10.96938901655101
C        -5.49243585554405    3.00800894110562   15.56657457482742
H        -6.40828801634162    3.56925210079749   15.75482954300196
H        -4.86375882748488    3.07899799855652   16.45031714554796
H        -5.76166167367621    1.96726696361243   15.40461619379761

