48
CSD_code = LOJXOZ | q = 0 | S = 0 | Stoichiometry = C17H19Cl2N3O6Os | MND = 7
Os       19.48311190216464   19.48288822922026   -0.00008288494710
Cl       17.99303021233579   21.01467899924392    0.97496195019363
N        20.82447218665956   20.82445403965907    0.00005550030153
N        20.38127060662340   19.16875830947706    1.86508462937092
O        22.19174261909368   19.70262517101453    3.08558663417070
O        19.31483995105317   20.03424158619941    4.71794985082234
O        17.89310645699027   18.82668291785467    3.46728355340579
C        20.20511354784185   18.45563086461649    3.12131997153613
C        19.08236744607045   19.20709055231479    3.87923440036868
C        16.76543194331112   19.59314115925291    3.89625042736513
C        21.55280528496122   18.66860136098742    3.83335147413112
C        21.45392590549812   19.89535712517754    1.99377620929555
C        21.73969419965293   20.88242509713272    0.99317713890510
C        22.74479082102735   21.84475402798844    1.01683459028184
C        22.78849279453863   22.78837262934417   -0.00013337485093
C        18.23678658082823   17.65905901673434    0.55177379972020
H        19.93003237313822   17.41313930364972    2.95748317375299
H        16.95129464310004   20.01642498488699    4.88354746737995
H        15.91656956032305   18.91399777534827    3.91509709802896
H        16.60585102054736   20.39163967259290    3.16847631078922
H        21.41254175086652   19.02538018040531    4.85683100258736
H        22.18999191990750   17.78005290966518    3.81817256315951
H        23.45480076458001   21.84210970278997    1.82713678016688
H        23.55079795630909   23.55063213848951   -0.00020775230902
H        18.85590317750838   16.77409375343135    0.43231617825588
H        17.79548857879763   17.80552036967106    1.53009885087678
N        19.16858396196445   20.38113496543595   -1.86472874743127
O        19.70215616694547   22.19151643969523   -3.08542522750829
O        20.03560485381232   19.31523711667219   -4.71628731816125
O        18.82583808823027   17.89284830080075   -3.46844542398405
C        18.45532567852667   20.20474986335845   -3.12083758942187
C        19.20714884802971   19.08244239141645   -3.87891857829941
C        19.59278559125972   16.76540005447673   -3.89744263935386
C        18.66781264681419   21.55256023262906   -3.83273402284458
C        19.89517019756029   21.45377713192042   -1.99360442816092
C        20.88238789236292   21.73958650789166   -0.99317278500099
C        21.84477285245411   22.74462811824833   -1.01700458216605
H        17.41295216845631   19.92925122523695   -2.95694848477034
H        20.01736425165829   16.95223129292260   -4.88396723002029
H        18.91348552257535   15.91675226011740   -3.91802739918400
H        20.39028670098653   16.60505135717051   -3.16878361911987
H        19.02399768187680   21.41258653324015   -4.85644387592199
H        17.77915112751768   22.18958309137290   -3.81686367531313
H        21.84205328596591   23.45458045916841   -1.82735450712119
C        17.65931062416431   18.23647726051662   -0.55151806785471
H        16.77437707063083   18.85566435036554   -0.43216488316727
H        17.80612795632339   17.79545798738124   -1.52992688256966
Cl       21.01475262814974   17.99243118281585   -0.97477557538738

