27
CSD_code = LOJYAN | q = 0 | S = 0 | Stoichiometry = C12H8I2N2O2Ru | MND = 6
I         4.92819313590890    3.50193645314481   14.04046437244858
I         6.68024092811286    3.50156900808781    8.90509229837917
Ru        5.64870248352573    3.50175096635773   11.41991361591151
C         4.36152868948595    2.22393269111464   10.98376316403951
O         3.55898818175307    1.46008441170254   10.71347432685725
C         8.29773945258060    2.76830400231321   12.34979777934312
N         7.15029826877289    2.19787594641900   11.93383960800662
C         7.06869709258640    0.87029566379710   11.89586595478354
H         6.13134515826722    0.44674773624546   11.55282342318061
C         9.38911351870136    1.99514152165746   12.74221744172341
H        10.29928438714405    2.46522011418429   13.07451960034459
C         8.11090698727848    0.04239670757564   12.26887279746779
H         7.99038992363483   -1.02716014798662   12.21877801907018
C         9.29612690066409    0.61706159382999   12.70311288942790
H        10.13066498273220    0.00382443174889   13.00442314733928
C         8.29773703404378    4.23521974683660   12.34981051706071
N         7.15030194844991    4.80565476045940   11.93384439967125
C         7.06869710813891    6.13324087267174   11.89593692345276
H         6.13136469937239    6.55680700184223   11.55286485198526
C         9.38910911810366    5.00837022595625   12.74225669418667
H        10.29927944548023    4.53828010977710   13.07454111618613
C         8.11089433666885    6.96112869133395   12.26900965320017
H         7.99035987336362    8.03068890905620   12.21901696219649
C         9.29612081605246    6.38645059465668   12.70321224834000
H        10.13065551387193    6.99967547993776   13.00455883179903
C         4.36160550449684    4.77955943656962   10.98356464031919
O         3.55915451080872    5.54334307071071   10.71282472327902

