165
CSD_code = LOKNAC | q = 0 | S = 0 | Stoichiometry = C82H74N6O2Ru | MND = 6
Ru        4.19831010603084    9.98061899315597    4.36361692658019
O         8.22282211150864   10.62167447520341   14.91834835273167
O         4.36966951272174    1.44793588255574   -3.25118833412791
N         3.52745740681086    8.40428916907577    5.52090187056662
N         6.11106376770843    9.20401386717952    4.45183675846327
N         4.88420845150646   11.54573868671607    3.24692368645603
N         2.30598026821390   10.72380484306904    4.26790198247326
N         4.55773911422890   10.79171658176430    5.86622132529566
N         3.95020987843544    8.99267580140732    2.94899462050784
C         2.24383353471488    8.18849964413906    5.89722580628466
C         2.18400784037265    7.00274405645437    6.70931112876918
H         1.28640373909550    6.60110330032050    7.13963762310811
C         3.45052375063838    6.53002910830504    6.80958418917432
H         3.79817614055792    5.66351421784451    7.33879038048175
C         4.29108471178894    7.41787376707335    6.05136705624230
C         5.66718427798559    7.25611912238844    5.88152995932917
C         6.49259292105783    8.09138331802925    5.12608240156515
C         7.90628340333513    7.89450293505139    4.94572050926424
H         8.46920197968108    7.08563446403204    5.37043165326202
C         8.34858669800153    8.90424502343853    4.15779654312141
H         9.34649571676067    9.08807537850553    3.80799978903931
C         7.20979807925275    9.73036203914130    3.85823131351546
C         7.25305407957911   10.89797749610078    3.09235138266679
C         6.16393750159319   11.73151325859895    2.83052399842165
C         6.23315418646598   12.93997397564276    2.05423517836628
H         7.12823615895802   13.32786168144544    1.60648878667492
C         4.98120540406348   13.45863252703650    2.01513575819579
H         4.64664236978763   14.35438787809430    1.52770268042351
C         4.13569345956299   12.56862044427056    2.76332454514066
C         2.75938658222486   12.73287550816574    2.93046914429561
C         1.92442882079780   11.85847772071576    3.62805436584216
C         0.50345485195922   12.02392683890583    3.76974093496171
H        -0.06057185744174   12.84038251615757    3.36098313589826
C         0.05306897171012   10.97103122864191    4.49497219877701
H        -0.95319406896960   10.75505472530034    4.79921451776919
C         1.19570802677271   10.15603355195024    4.80779898199000
C         1.14394406905532    8.97987947955846    5.55849469182886
C         6.30697752123758    6.09708379451375    6.55641381190707
C         6.82961592243886    6.25038319475643    7.84079008737433
C         7.42451059047154    5.16132702053036    8.46022373921381
H         7.82911357701646    5.27833417017534    9.45587372355338
C         7.51002181489178    3.92901726573987    7.82938514233897
C         6.98423831274431    3.79789723856962    6.55137820946124
H         7.04454470222033    2.84208687684381    6.04969328417909
C         6.38233948958172    4.86582765301460    5.90410884404048
C         6.73816878812311    7.57635560536012    8.53225799085769
H         7.19295119460036    7.53564380883725    9.51889378174922
H         5.69734594210428    7.88075190472423    8.63825696362126
H         7.23943095332623    8.34870579352818    7.94980139935550
C         8.17362691000626    2.76373675989773    8.49957346174585
H         8.23404681393775    2.91576205146639    9.57439437943030
H         9.18683859097334    2.63968022058356    8.11585648053742
H         7.62777974261008    1.84317694291988    8.30303583191342
C         5.80101075361766    4.70467542409751    4.53193596103122
H         6.08666794148053    3.74917149390638    4.09910976032574
H         6.13262506415219    5.50470944511835    3.87178306543357
H         4.71319353343894    4.75135683540013    4.57805116179993
C         8.56360013678680   11.27845522215410    2.50101792899557
C         8.88851388516854   10.84214499180430    1.21501841775879
C        10.11107120504380   11.19946020497924    0.67037284891701
H        10.36623718001335   10.86304054443203   -0.32494995942217
C        11.01719345241778   11.98129492109392    1.37497619824193
C        10.67654335196157   12.40460511792799    2.65000262717609
H        11.37125144618186   13.01373645258053    3.21148067588901
C         9.46059739182590   12.06289070352597    3.22448545245568
C         7.91465385594481   10.00782439213017    0.43941807093277
H         7.02522713193157   10.59334445532727    0.20560331678498
H         7.59761118107081    9.14398063961305    1.02257868721382
H         8.35656408192599    9.66217477014111   -0.49192512598495
C        12.32997117133275   12.35620094503430    0.75604647073003
H        12.87233028690405   11.46470996570591    0.44403175627224
H        12.94718135155155   12.91187044280485    1.45741208041134
H        12.16892435798033   12.97306842324823   -0.12768046632176
C         9.11411312513951   12.51740411490490    4.60998561901475
H         8.13217409087680   12.98904123658971    4.62385029139148
H         9.85030218680820   13.22654107314140    4.98074053683786
H         9.08558993705395   11.66269850157272    5.28673608229481
C         2.13091499082316   13.92275861175689    2.30040628547639
C         2.01246786995065   15.10809525170653    3.02459619440267
C         1.42210484219123   16.20958126975118    2.42231916451683
H         1.32881803541232   17.12970733469127    2.98229532058195
C         0.94953493272007   16.15305087524652    1.12000944668439
C         1.07742670686847   14.96280598605175    0.41586704097050
H         0.71169747536802   14.90826995906292   -0.60011787948182
C         1.66235845053385   13.84476790742437    0.98807368237394
C         2.51827654101840   15.17581365130181    4.43381604574326
H         2.37014802585974   16.16855806211415    4.85150623046286
H         3.58009871690375   14.93404188521592    4.46923583417331
H         1.99790553076749   14.45088311416501    5.05927601775565
C         0.32406910922114   17.35028272302456    0.46975612473404
H        -0.60753494434437   17.07656429583446   -0.02244503828785
H         0.99323924571275   17.75840429918789   -0.28798476983762
H         0.11934304670959   18.12854896120296    1.20062936398050
C         1.79731318453479   12.56366674348690    0.22175346906329
H         1.29607609704704   11.75084189372251    0.74643239517480
H         2.84731326579283   12.28938618513019    0.12298787904315
H         1.36578420337994   12.65918058431608   -0.77152184795796
C        -0.19392104209391    8.52555265806597    6.02087618218396
C        -0.69581675703526    8.94873733505469    7.25196426750167
C        -1.95126858707606    8.51869983063252    7.65145696777105
H        -2.34449154034775    8.84611032946217    8.60386896035953
C        -2.71600168785661    7.67818870492029    6.85389675581919
C        -2.19709365436212    7.26425772097364    5.63635920789216
H        -2.78060219210442    6.60803510036230    5.00571018973916
C        -0.94417321517506    7.67636556639297    5.20713747767231
C         0.12603840215540    9.84163849623706    8.13185725983985
H        -0.46417473459260   10.21398072996208    8.96560513197560
H         0.51431754454065   10.68840887329440    7.56759428239542
H         0.97664147356112    9.28867241825526    8.53209867686126
C        -4.06569556419729    7.21843149719800    7.31646168651057
H        -4.63461284877320    6.79119856682598    6.49446234567675
H        -4.62926531349554    8.04661713838782    7.74197516011628
H        -3.95738047380656    6.45707472600903    8.08944339562570
C        -0.38980288196426    7.21281030072535    3.89392181376909
H        -0.06726473251436    8.05976982517534    3.28975813337063
H        -1.13276644638952    6.64605789418870    3.33828581184266
H         0.48095837452623    6.57750707251715    4.05570635432057
C         5.03271467223683   10.85241280455261    7.08890905765635
C         6.36163702777457   11.27448892426902    7.34228980386613
H         6.96841247923911   11.56967718742523    6.49824201611909
C         6.87194677099272   11.26920333957568    8.61519679084951
H         7.90121776794004   11.55954834642398    8.77346333224662
C         6.10033296179297   10.86224414393381    9.70848850873168
C         4.77596339052351   10.47782797371656    9.47200212500980
H         4.15178158038708   10.19316349816049   10.30753953826832
C         4.24627725379660   10.47753965823413    8.20724899783860
H         3.22126811765410   10.18308924128030    8.03065476221050
C         6.66373465751431   10.82870357320039   11.05879805407608
C         7.54804984198646   11.80990140910759   11.49747897194680
H         7.80465914561911   12.62775323742293   10.84007814066417
C         8.08636482833052   11.78282776506192   12.77124582015950
H         8.76003673903992   12.57064909118274   13.07096687599738
C         7.75303005040058   10.75407291838634   13.64473415581767
C         6.87023014914408    9.76181519283640   13.21458029293785
H         6.62382446574466    8.96551682422596   13.89952250831985
C         6.33443215829394    9.80254240588449   11.94789214064855
H         5.66768750432469    9.01516799850197   11.62900315390758
C         9.12314755010720   11.58525551124070   15.40479875179472
H         9.36186760188502   11.27944348035100   16.42234083336689
H         8.67364635066777   12.58368144937848   15.42454513381147
H        10.04305270605916   11.61313615220393   14.81119730485733
C         3.99929516360143    7.98245099748834    2.11434532940982
C         4.55470253362542    8.13238126950306    0.81845349644369
H         4.91402455300942    9.11046026540922    0.53164296289340
C         4.62586437547344    7.07100822656133   -0.04631499191941
H         5.04059405376944    7.22138362548049   -1.03308293288350
C         4.14558792799396    5.80579364103039    0.30930176056340
C         3.57757896892539    5.65284747806409    1.57890696022120
H         3.21532089467546    4.68032084522660    1.88122973540123
C         3.49759687231409    6.70107039141213    2.45895520577520
H         3.06810665422348    6.57110965428943    3.44255843107535
C         4.22940019903993    4.67951234292626   -0.62152847891294
C         5.32831235948981    4.52150549625270   -1.46173069389744
H         6.14493419800541    5.22665912906721   -1.40889822382594
C         5.41826181705694    3.46252994339618   -2.34658925057842
H         6.29350960635262    3.37684375129604   -2.97189318240945
C         4.39276657732231    2.52666032486124   -2.41691805080412
C         3.28495985744474    2.67482711876256   -1.58045040352880
H         2.49287037139161    1.94551402102875   -1.64793223622606
C         3.20864181378471    3.72861931542815   -0.69897008292991
H         2.33285178552795    3.83478190804641   -0.07630307125377
C         5.45222552048334    1.25376957284353   -4.12653154691010
H         5.21619093372058    0.35444689820797   -4.69343620472753
H         6.38939137780391    1.10053127715044   -3.58095079585786
H         5.56803543064929    2.09563187652292   -4.81728625989059

