48
CSD_code = LOKPEH | q = 0 | S = 0 | Stoichiometry = C19H22NO5V | MND = 5
V         3.92147639910709    1.89748278046174   14.24112032393952
O         5.31617881756413    1.27301522053679   14.33551488375300
O         4.06924394816071    3.43328957170936   14.82566623804810
O         3.56006782062063    1.84952417236234   12.64002396049987
O         2.97813095142001    0.92577582355617   15.19692712626142
O         2.14221697315066   -0.78460407898513   13.18966621857654
H         3.08779788411191   -0.58369244587449   13.29112328093712
N         1.72380766672905    2.82599029697266   14.09162463695614
C         3.43219239901316    4.38266031635976   16.91822273509507
C         4.06273330645383    3.33719102703826   17.58167136790427
H         4.41579789594296    2.47973260821442   17.01414839664054
C         4.25441236297316    3.40435066502221   18.95094697607458
H         4.75002712118918    2.59246982974216   19.46196791802234
C         3.81416519557365    4.50730580687647   19.66394533125071
H         3.96355992406652    4.55690436232608   20.73233074156700
C         3.18653465952711    5.55023708495653   19.00372416450488
H         2.84693415409942    6.41447840947990   19.55538960706996
C         2.99644746206922    5.49006606844597   17.63424483175892
H         2.51167994736411    6.30735279893842   17.11853395880818
C         3.17835478163436    4.27943826028868   15.42499502200046
H         3.27916843212835    5.28313585188624   14.96893586293629
C         1.71851887091229    3.74491679666000   15.20456360907784
H         1.41616767856383    3.19608178585390   16.10173571184642
H         1.02351444245480    4.58677031551259   15.05799914397681
C         3.40577961445253    3.46066817537058   10.89085774373041
C         4.65333225945152    3.96613607042082   11.23627063392400
H         5.11035140958758    3.66163860450024   12.17435819741487
C         5.31049046605362    4.82949510331650   10.37705122686402
H         6.28327698742943    5.21406949930642   10.64494891941337
C         4.72492369533820    5.19811453345811    9.17691872458753
H         5.23927195107262    5.87181384864980    8.50769574264106
C         3.48087989948005    4.69693338029052    8.83272167332146
H         3.02398587066208    4.97802851577107    7.89527903579697
C         2.82224550575083    3.82880125612488    9.68605027116494
H         1.85486053652385    3.43086809009941    9.41330457164658
C         2.67954069883785    2.54689998680919   11.85966892009144
H         2.06760083183291    1.82216159854813   11.29144206942962
C         1.75406428672209    3.41895853090794   12.77573962983547
H         2.19521102473017    4.41710967846540   12.85696745506773
H         0.75299471594474    3.51273555851676   12.32621305539677
C         0.89511594209011    1.65126216349596   14.23744454301241
H         0.74742140271065    1.21196841353842   13.24695551125435
H        -0.08813944335361    1.88102888924227   14.67630720491539
C         1.65017207660187    0.60519955468077   15.11429467438517
H         1.22024732017905    0.55827032834870   16.13135925266151
C         1.55051818562863   -0.79445626604396   14.45871002168069
H         2.03915730800109   -1.52634241501058   15.11720333114619
H         0.50266835944018   -1.07423642714747   14.31781554311062

