93
CSD_code = LOKQEH | q = 0 | S = 0 | Stoichiometry = C29H57FeIP4S | MND = 6
I         2.44259295922383    2.97942303456053    0.90286828149896
Fe        0.41957352519137    2.88779047380866    2.42548151059284
S        -4.89215401306417    4.10224891620117    2.66164934666242
P         1.45127600608097    3.93999654160390    4.05421434378804
P         1.07943581021899    1.01605399157069    3.34162219885321
P        -0.76293929882685    1.78243073891631    0.93066042863823
P        -0.39821245450199    4.73874761497554    1.51841588034394
C        -0.97973842874981    2.76135632818658    3.74051328421734
C        -2.26673721627515    3.09955422527820    3.61770872537742
C        -3.30786280540452    3.04403172890671    4.62595984866653
C        -4.60640207011686    3.49038499136873    4.30926080119928
C        -5.61497839840359    3.45560287004656    5.25439522329831
C        -5.36367660669656    2.97800103930697    6.53022726176687
C        -4.09660185861371    2.53351904647626    6.86203212733160
C        -3.08918043684122    2.56859048043772    5.91950200253384
C        -6.65571825942313    4.51183372871591    2.62502587485386
C         2.46271991129084    2.69165682952033    4.96843026346013
C         1.72194161141828    1.36920293699923    5.03696233005168
C         2.76143653201879    5.21357186053224    3.78487727795242
C         3.56790812697729    5.65590639053269    5.00025417092967
C         0.45194948900069    4.81260882247757    5.36328869409472
C         0.65970273286156    4.41465813757002    6.81986508551356
C         2.40957631245088   -0.09504805172455    2.66565185921250
C         3.86396121547076    0.22088093323875    2.99436949786962
C        -0.19806168982028   -0.27246847399909    3.69503596562697
C         0.08783991086421   -1.24491602929059    4.83361990781760
C        -1.25915623034381    2.98519141513728   -0.37310262839168
C        -1.71501389798306    4.26667781069429    0.30363723550959
C         0.03166717528942    0.48262489007175   -0.12116848402723
C        -0.78924591988380   -0.08245567469962   -1.27405447630519
C        -2.34074326510820    0.89673688651656    1.36968482440800
C        -3.58852280557474    1.17173704328473    0.53893357861612
C         0.49995004862761    5.84996186698298    0.32594837599970
C         1.66218272469240    6.69612285468564    0.81802672699899
C        -1.21240855699929    6.00919546658902    2.58153637405144
C        -2.21353468431275    6.94515254049266    1.91749030423422
H        -0.70006166074182    2.39164903632610    4.73174001762317
H        -2.61354949793221    3.47192421102890    2.66236806322194
H        -6.61020197408308    3.79842519343970    5.01877015167245
H        -6.16190220517706    2.95722054324278    7.25728756713415
H        -3.89424974046039    2.15993040769209    7.85548360683436
H        -2.10432258409682    2.21714958050413    6.19063600826961
H        -6.87314448739985    5.30661400381350    3.33330375262307
H        -6.84624607850686    4.85942354734299    1.61367401451291
H        -7.25038056348177    3.62526728490899    2.82725773599445
H         3.36830174345681    2.57734120718226    4.35963186167007
H         2.74905994910427    3.05307728297218    5.95860772661664
H         0.87233190042676    1.43939066030124    5.72186164869094
H         2.36514440840745    0.55265626328670    5.37818388504007
H         3.44063639926568    4.82393948441733    3.02151431052066
H         2.24024384953937    6.07605160719061    3.35754064324474
H         4.16891762333454    4.84213008078711    5.39749485307175
H         4.24601977671057    6.45388829693410    4.70111257662048
H         2.92914213113692    6.04036611218028    5.79215832436722
H         0.65877341162066    5.88090206014257    5.23908421521153
H        -0.59754798044964    4.65434153201030    5.10769532111591
H         0.44764241315053    3.35926340227551    6.97690272031428
H         1.67193119173926    4.61832962456070    7.16234471064438
H        -0.02625759521972    4.98632900424435    7.44454903173013
H         2.17118772735492   -1.10591340803025    3.01456227476541
H         2.29317308197821   -0.08049424556634    1.57792703035810
H         4.06088215626015    0.18002994222407    4.06351807463259
H         4.49908523216476   -0.51922021101474    2.51014272109966
H         4.15204183710679    1.19634675212174    2.61237537806400
H        -1.13306410416168    0.25780250300167    3.89097823630354
H        -0.32468432095261   -0.82525695984911    2.75686227707774
H        -0.67133031700288   -2.02598227007657    4.84036732001549
H         1.05965040781843   -1.72348454118638    4.72758146746061
H         0.05768225538210   -0.74424165415298    5.79818456252721
H        -0.35404528856778    3.16954652678266   -0.96662638169265
H        -2.02920680183200    2.57652541393131   -1.03008533280835
H        -2.65643714640916    4.10431409761573    0.83177684962039
H        -1.86706351066947    5.06840092454935   -0.42559972637813
H         0.95545110089537    0.91241295954860   -0.51820911792640
H         0.31039442894516   -0.32944068216426    0.56184926106619
H        -1.04556254482643    0.69189441529166   -1.99230256022781
H        -0.19705754400188   -0.83460142943683   -1.79362288727332
H        -1.70319149708630   -0.55846628707561   -0.92691410630799
H        -2.10009073952141   -0.17114050623329    1.33247035568832
H        -2.56101061200560    1.14607468285089    2.40926764286281
H        -3.89716594876610    2.21046810807906    0.62457432959050
H        -3.44940658179375    0.92992824785011   -0.51206942339618
H        -4.40219970926742    0.55406195819538    0.91864605353839
H         0.84814468014937    5.20964615348487   -0.49064993021457
H        -0.27625380769002    6.51158991402671   -0.07453088706620
H         2.51134377413810    6.07525852915695    1.08558276917604
H         1.97993726515566    7.36069187073538    0.01574493074252
H         1.37583221252975    7.31326901943112    1.66826940135026
H        -1.70947452822054    5.46823593585632    3.38901043384751
H        -0.39070520177813    6.58168671842583    3.02862480302553
H        -2.58642268139820    7.65256919298627    2.65714872802081
H        -1.76586991416616    7.51600197698446    1.10738425836428
H        -3.06266898487629    6.38801171882785    1.52963442411493

