39
CSD_code = LOKTEK | q = 0 | S = 0 | Stoichiometry = C16H18Cl2O2Ti | MND = 4
Ti        7.57605240042839    2.41451922318502    3.38771393168255
Cl        7.33685635145756    3.90194245291865    4.94233062939574
Cl        9.64703720737794    2.62173359170324    2.79043160693847
O         7.41266370352082    0.91706775978234    4.12080795591009
O         6.64710775572245    2.89474712004569    2.08133076863828
C         6.71678602877693   -0.21316906660139    4.28208224489691
C         7.38800069849723   -1.44479272835078    4.31149267784795
C         6.64076076899922   -2.60112998240381    4.47314337781873
C         5.26370680446294   -2.54298778164257    4.60359421544423
C         4.60957640595423   -1.32257891620901    4.56543323834762
C         5.31897049517962   -0.14350065355438    4.39996382628670
C         8.88045331211961   -1.45310621845274    4.17049543343171
C         4.65711485382193    1.20304232887127    4.33045712175752
C         5.80685614278544    2.62230265127029    1.07764447399232
C         4.76171573873463    3.51252014074861    0.78831871901406
C         3.90083940080256    3.20526699962648   -0.25339306728426
C         4.06872214696788    2.04672429933906   -0.99285508992383
C         5.10021723527913    1.17163366511656   -0.69547327473179
C         5.98010223244248    1.43915195127958    0.34165450542606
C         4.63047689945618    4.75480144022832    1.61682981297638
C         7.10223004653589    0.51365819937370    0.71604724551781
H         7.14579886055162   -3.55538552310761    4.49727582336332
H         4.69709304915932   -3.45217971316752    4.73330969955421
H         3.53479041733394   -1.28339532689323    4.66370000227101
H         3.09221626542489    3.88219169900480   -0.48612590738288
H         3.39234319288091    1.82385511706726   -1.80367760854796
H         5.22465673692640    0.26816464001156   -1.27393452848118
H         9.23561335312312   -2.42996654439282    3.85323593216991
H         9.34540192310151   -1.20936915324368    5.12724776586779
H         9.19742918577127   -0.69509788111785    3.44752164886413
H         3.61416729897097    1.13259282804404    4.63006402199406
H         4.69640768384651    1.59015938958820    3.30250774783687
H         5.17169241915445    1.91643041388766    4.98947350142083
H         4.81798803042121    4.52937490696332    2.67120151697653
H         3.64181220397109    5.19250052524500    1.50868462692930
H         5.37322007525575    5.49044334263392    1.30281946944767
H         8.02999779187025    1.08217403771623    0.87624706322536
H         7.26816488784067   -0.22215056547964   -0.06727832987052
H         6.85685999506026   -0.02048866903404    1.64387720097634

