20
CSD_code = LOKVUC | q = -1 | S = 0 | Stoichiometry = C6H6Cl3N2O2Ru(1-) | MND = 6
Ru      -10.96006105570321    1.54444754541926   -5.75118471080485
Cl       -9.03191207176412    1.08618253635231   -4.42948798171038
Cl       -9.70552155846918    2.49767761034214   -7.44705431256088
Cl      -13.01979413410685    1.69116573115781   -6.98950585041032
O       -10.72061786735386   -0.19893906573976   -6.57474068724866
N       -12.02800109798708    0.35331879035866   -4.43451013129431
N       -11.25646696412986    2.98691298403052   -4.96886043884698
C       -11.62724898943352   -1.15030661160751   -6.24300117295258
C       -12.23414144178599   -0.88373968587270   -4.88895485361580
O       -11.57144133169273    3.92148040744572   -4.34037981791667
C       -12.50472050388757    0.70393754605538   -3.24374773559308
C       -12.94676458042591   -1.82041509826538   -4.14940328307702
C       -13.22259490769702   -0.17134367948061   -2.45210427066446
C       -13.45233892004002   -1.46069703498039   -2.91483320357974
H       -13.59253914077068    0.15199820022477   -1.49209987425114
H       -12.30041138197445    1.71436354563271   -2.91401831369675
H       -14.00984629352626   -2.16929479348415   -2.32009467577378
H       -13.09267572049736   -2.81108003136275   -4.55146009799896
H       -12.46675720176641   -1.17464028827237   -6.97546598925749
H       -11.15474483698805   -2.15382860795434   -6.24539259874657

