31
CSD_code = LOKYUF | q = 0 | S = 0 | Stoichiometry = C4H16N6NiO4 | MND = 6
Ni        0.00000718917485    0.00003797001083    0.00009328674572
O         0.67955167339378    2.29619307891746    0.79888066952529
O        -0.27919769025989    2.28137089736419   -1.13381252483235
N        -0.90604786949916    0.17996284671711    1.99149215839871
H        -0.48604243466816   -0.49863669633852    2.62332875459206
H        -0.69721053207413    1.10940782751534    2.35561764647157
N        -2.13068183739497    0.19571977489940   -0.48950926664269
H        -2.24675600272644    0.83246588062286   -1.27506691545732
H        -2.47857530483169   -0.71784231233780   -0.78004282933048
N         0.14424382278790    1.71225440271672   -0.13644920643144
C        -2.35304407281386   -0.02268663829447    1.92326839356757
H        -2.87876748871493    0.35780911353001    2.80884806392406
H        -2.54663961101486   -1.09574401542441    1.83968898288908
C        -2.88474801824536    0.67898211706671    0.66682569393667
H        -3.96461418076103    0.50362388060430    0.57495701882618
H        -2.71526468352030    1.75504958346918    0.76244920271087
N         0.90606307340715   -0.17935027543433   -1.99137202274436
H         0.48628012665185    0.49918885488108   -2.62341251261778
H         0.69694844594213   -1.10883935271277   -2.35524877121922
C         2.35312023875181    0.02285448608779   -1.92320791719605
H         2.87867093534818   -0.35762177591960   -2.80890273932777
H         2.54705893736807    1.09583381077716   -1.83942305498048
C         2.88471133356963   -0.67924289774774   -0.66696582218152
N         2.13066500112849   -0.19626537657579    0.48949829202503
N        -0.14433884710188   -1.71211237062560    0.13644713830522
O        -0.67851787398050   -2.29624878065655   -0.79947172259603
O         0.27807474865592   -2.28112391677095    1.13434902119936
H         2.24687058761869   -0.83308793238610    1.27497325289511
H         2.47844155161542    0.71731704045616    0.78012598063419
H         3.96459700937612   -0.50400423888801   -0.57502169781445
H         2.71514177281721   -1.75526498552374   -0.76293655327486

