71
CSD_code = LOLJED | q = 0 | S = 0 | Stoichiometry = C27H37N3OS2Ti | MND = 4
Ti        8.51448598977216    3.13203058337681    0.45764533715424
S         5.19876058451857    2.86063753693947    1.82685069857435
S         8.43960665960003    4.69613220706981   -2.32388129818913
O         7.58331784482737    2.13589219455649   -0.70943877443479
N        10.31627821969058    2.88519015143347    0.01361571509836
N         8.10029207623726    4.87447244511167    0.91636956775697
N         8.37558041860034    2.16839318752279    2.06122426027011
C         5.57575096154804    2.93927274054103    4.48570070247592
H         5.50748281747073    4.00488299310716    4.32636800113673
C         5.77753654690942    2.42708583339404    5.75058843115633
H         5.86743545493333    3.09776001846443    6.59254074858681
C         5.86847005429772    1.05633981859986    5.94199193138090
H         6.03082371447632    0.65357225885282    6.93047800429980
C         5.74597800397106    0.20879584277636    4.85574552007869
H         5.80945540963201   -0.86111937770193    4.99529164845176
C         5.53761924801698    0.71355955358129    3.58303537513856
H         5.43652066200700    0.02719216456329    2.75751618038537
C         5.46309213989034    2.08621369357280    3.38891246377906
C        10.74932212509873    3.96323921277999   -3.70176551989361
H        10.13322067522957    3.46719883568128   -4.43580868986216
C        12.12580003174239    3.96666652704795   -3.85784899574167
H        12.56397309047356    3.46166364360844   -4.70658234636821
C        12.93569127943808    4.61570446113459   -2.94317221829203
H        14.00776742241845    4.61527625606805   -3.07253539521325
C        12.36303619665890    5.26833044209297   -1.86070375036208
H        12.99053731555453    5.78295692618451   -1.14738054718070
C        10.99289901783499    5.25993272986199   -1.68832199208016
H        10.53362948997525    5.75144133766384   -0.84185611402595
C        10.18107394503042    4.59982190432055   -2.60694448082313
C         6.44186351784531    2.90013048752196   -2.64294855232155
C        11.42944589692595    3.20116143555368    0.87149826484660
H        12.30399596655066    3.51964101037243    0.27754061007649
H        11.75095660171877    2.32624159811539    1.47015838854064
H        11.16648747365982    4.01234059100703    1.55496608088110
C         5.24384216810020    3.12858787744672   -3.29635011624199
H         5.26140980628981    3.56126274156192   -4.28717212931150
C         4.02455818061841    2.81345103806530   -2.71005974858909
C         4.02954471374987    2.26391404524621   -1.43613807655020
H         3.09212441639996    2.01606072945487   -0.95785849851830
C         5.21008664354509    2.02619121376904   -0.75124051985658
C         2.74062816168598    3.04782534592539   -3.44804955433837
H         1.89975141727759    3.07892498898255   -2.76006262942254
H         2.56512462689135    2.24455287336983   -4.16458205325711
H         2.77932136883902    3.98492490716295   -3.99923542280606
C         5.21403362487121    1.46115910573987    0.62986897122234
H         6.13758683154355    0.90614638348310    0.81079187719075
H         4.32925109308228    0.85123860691832    0.81672910137735
C         7.75609833978006    3.25624818140688   -3.25578019804434
H         7.64728295086952    3.53741470161639   -4.30333279863003
H         8.47479011360762    2.44218424570170   -3.14089365427573
C         6.44820321548699    2.35804095893454   -1.33899135211281
C        10.67609492545511    1.79352421865637   -0.86018254753680
H        11.50399105244809    2.08269092429075   -1.53258096614969
H         9.82198741311704    1.49159118939068   -1.47272138991190
H        11.02021373525642    0.90840186976215   -0.29045159680631
C         6.85103248843653    5.42573980730267    0.44503920466561
H         6.21087221616921    5.74174035998600    1.28773640056748
H         6.29350358372677    4.68906843836828   -0.14470442054532
H         7.02049227339130    6.31435652295218   -0.19111855680306
C         8.82920734288345    5.88047660615653    1.64534772563396
H         8.23732988487441    6.26384785199379    2.49690388997675
H         9.06377422592635    6.75173638675247    1.00443920398862
H         9.76533390406677    5.47497822987336    2.03687947251957
C         8.78877245782691    0.78654229854951    2.00546395273523
H         9.87204503333017    0.66572580694979    2.20281257565056
H         8.56782053187340    0.36457897606352    1.01827250596027
H         8.25828398890059    0.19123289468133    2.77116804117429
C         8.72391622043531    2.74818233081662    3.33428096622675
H         9.82107813075366    2.81465938351808    3.48032481248520
H         8.32588721268253    2.13698640593920    4.16128937722044
H         8.29323885327951    3.74866030831150    3.41350889556431

