82
CSD_code = LOLLII | q = 0 | S = 0 | Stoichiometry = C24H50Cl3N2P2Rh | MND = 6
Rh        7.75457028270250    4.44360155021385   10.64826718083348
Cl        6.27602636824167    4.56514790978599   12.40349422584028
Cl        7.88685347825028    6.76672577632578   10.41265733898489
Cl        9.57569235414730    4.56514675069517   12.14847969524806
P         8.12695048012277    2.20553779018329   10.94966213376935
P         6.06916935573522    4.81170181066919    9.12115519373374
N         9.14145550487162    4.13303218758774    9.12797816128529
N         9.25680173265315    5.13774082858836    8.25813908076895
C         9.98472017970849    3.15730265477593    9.17492542397564
C         9.85859374516198    2.17149960967060   10.29268767343794
C         8.29585696186443    5.63662826609229    7.59116471025505
C         6.94767479015897    4.98273049793890    7.47838820080465
C        11.14492326662030    3.03110946228305    8.19590902146819
C        11.94125362295264    1.73545503576673    8.38245527253819
C        12.08132235985058    4.21719388945775    8.47974286499076
C        10.65477213075430    3.07544712003030    6.74170443143643
C         8.60472715819352    6.86763173714025    6.76294417335631
C        10.01090738363658    7.37666168728139    7.08632351524517
C         8.52881320529752    6.49545986962549    5.27356252596189
C         7.60430059996737    7.98683693840884    7.06793015351665
C         7.36863150665581    0.80687718738688    9.94380620101198
C         7.63815912664064    1.05411667234752    8.45811992011728
C         7.83187161345392   -0.60391355525035   10.29588188310555
C         8.17915124077144    1.64618091057906   12.72053623261945
C         6.78162405471050    1.20329298162403   13.15005342728711
C         9.26835075119816    0.64399749371711   13.08858056688896
C         4.91412080629375    3.36445066769482    8.82413486076981
C         4.21300005473048    3.23778257121113    7.47397308116924
C         3.92546296176982    3.27159197773059    9.98369263256032
C         5.04534321705162    6.37574746940152    9.15462360989244
C         4.48116926813460    6.68166674480481   10.53832772664781
C         3.93796822839710    6.44690235222120    8.10647184864572
H        10.50265654380138    2.51173832416643   11.11074984514886
H        10.15226625977226    1.16659993427125    9.99459650923655
H         6.30814054908171    5.51940061295201    6.78030241016241
H         7.09341351588361    3.95947340053649    7.11383539766684
H        12.79198854000859    1.74702067803078    7.70429853827901
H        12.32677264362164    1.64570758550578    9.39425827327448
H        11.34373809045879    0.85720022861789    8.14427246718934
H        12.89561184114872    4.22853833741909    7.75918529519871
H        12.49925345211424    4.13069030583909    9.47966152202058
H        11.54092993127970    5.15610178318280    8.41678796633777
H        11.49453297098052    2.91336447332210    6.06998508755002
H        10.21432877744336    4.03869944324138    6.50686207990285
H         9.91622450002338    2.29639162538884    6.55928909421226
H        10.20110037627946    8.30409642979567    6.55225410882027
H        10.09673083126288    7.56169716976141    8.15275375013351
H        10.76433729045981    6.65029004291517    6.79502300149294
H         8.79033862230256    7.36210635093237    4.67173339228805
H         9.22740260639329    5.69489232880819    5.03829424478386
H         7.52945355409978    6.17485426791223    4.98799695168337
H         7.88475838747922    8.88060429916685    6.51578905385885
H         7.62808768525418    8.21410433072808    8.13047900853325
H         6.59139289298429    7.71929027197990    6.77841029478679
H         6.29122468447138    0.87208694510768   10.13696136053458
H         6.91688592317064    0.51834082028760    7.84214911355448
H         8.63176471192015    0.70140751072942    8.18949730840268
H         7.58251712195332    2.11388727561710    8.21555987325433
H         7.41579958194899   -1.30178757340030    9.56894306039068
H         7.49135861424544   -0.91266727931514   11.27864017611294
H         8.91566846741141   -0.69126049089578   10.25597017122267
H         8.40122680372619    2.58249116038298   13.24813702219000
H         6.75307308559978    1.08710435525009   14.23156451872902
H         6.05677613435302    1.96879755190432   12.87525825244363
H         6.48852894011109    0.25749503388509   12.70050936021298
H         9.24050020846038    0.48754146050842   14.16573840431195
H        10.25311339810455    1.03037095177930   12.83766015258980
H         9.13466698300946   -0.32042595027759   12.60882820480946
H         5.59471564820363    2.51304076169439    8.91483987453464
H         3.79577702554956    2.23428081324762    7.39336918797102
H         3.39317636029393    3.94000892702784    7.37232460123054
H         4.89805535455057    3.37900897002673    6.64108201037221
H         3.49386457913867    2.27267777996043   10.03228431982015
H         4.43263307587622    3.47939523950033   10.92650378418033
H         3.11056433736798    3.98040562254195    9.86230376632428
H         5.79236692873428    7.14497111978236    8.93215037118729
H         4.00796937255752    7.66219640463932   10.52396869047203
H         5.27708939563403    6.70126951926138   11.27648482985910
H         3.74550026890979    5.94694199364546   10.85166837260037
H         3.60270684539427    7.48039984450539    8.02728778602173
H         4.26842239871451    6.12947128979357    7.11958826191416
H         3.08045609777877    5.84800287234501    8.40163590402153

