77
CSD_code = LOLNEF | q = 0 | S = 0 | Stoichiometry = C20H45Cl2N9Zn | MND = 4
Zn       14.66145956675926   10.48852721544666    4.54760139262344
Cl       16.77748540832451   11.26092210248980    4.48558505675056
Cl       13.80599375779018   10.58189898551991    6.61578141174984
N        13.79465412344337   11.59364374280377    3.10613376271783
N        14.80489134083068    8.76858543280780    3.53752731855869
N        13.06560432016976    8.06816604527158    0.88004154049681
N        14.13956381265441    7.14288365304365    5.03454013762319
N        16.06742795853540    6.80206504815182    3.78836792743068
N        13.72879818888125   13.93431241481069    2.86826874168524
N        12.19561052460372   12.83017180018071    4.21624837846489
N        12.47434074544628    5.85914636105067    0.96715019849075
N        11.02681656316876    7.43427072740653    1.93156826944230
C        14.53790280853988   11.41497205309174    1.87345522965513
H        15.59030378137235   11.68676183701790    1.99771281871695
H        14.10291454077333   12.06923661613131    1.10685078104518
C        14.50730713261789    9.95872647389527    1.37566030837786
C        13.06236072048093    9.43247683899935    1.32207929817154
H        12.60005986741191    9.54411511500823    2.30988066132329
H        12.51255627520913   10.06458684186243    0.61087734902503
C        15.39634189954958    9.05256477416015    2.24548699141058
H        15.55260641172657    8.11115454165054    1.71038785749405
H        16.35988279871161    9.55768190735857    2.36019481362383
C        15.09381240430036    9.93274670692849   -0.03949200877890
H        14.98399370855855    8.93336955624861   -0.45015176681683
H        16.14712873132730   10.20324085972757   -0.02528758598479
H        14.56474998195061   10.63004830890083   -0.68549699838687
C        15.02640774283591    7.62816885758201    4.12067724293816
C        13.29547349223185   12.75748797489486    3.41129147052992
C        12.19924576189215    7.20552050593764    1.21803153021092
C        14.60948259969603    6.65040568445358    6.31294330302698
H        15.68288008289577    6.48629418787713    6.28965437971396
H        14.10432965044352    5.71534644700034    6.56635356064487
H        14.39439756906473    7.38893097621598    7.09173394574122
C        12.79066064767483    7.66280553295350    5.07565125583083
H        12.49574193769465    7.95357530741319    4.07177422279264
H        12.69850751810046    8.52061028181759    5.74590189639506
H        12.13707171332993    6.86510845229332    5.43412838013821
C        17.40983514343200    7.31378545922340    3.62275512580462
H        17.44448216010998    8.36817110564059    3.88513183037966
H        17.76590781840344    7.18461907767535    2.59698048313575
H        18.08552538454080    6.77501280305788    4.29428583538137
C        15.96187112396429    5.36587568287492    3.87159636352779
H        14.91456405141490    5.08200468846064    3.93352318656761
H        16.49820172791102    4.95461186001982    4.73396950585028
H        16.39452091087302    4.93068743278505    2.96628737815077
C        12.84401174965179   15.05257586554069    2.64991047772646
H        11.81137220183925   14.71857324345219    2.71066384509626
H        13.02962220420922   15.45466692516865    1.64987148674563
H        13.00273047440404   15.85907813280601    3.37371382326806
C        15.13884450881167   14.22954009145266    2.73405823851312
H        15.73238342275698   13.48168267823345    3.25543680488177
H        15.34369760535439   15.20104042765675    3.19218581068894
H        15.44500323630059   14.26948021568272    1.68502550743545
C        12.18727031051676   13.72944236061715    5.35291447347264
H        12.96819031674645   14.47721034763949    5.25385414479866
H        12.37188224366524   13.16168709313940    6.27001497696900
H        11.21697000915004   14.22442755527030    5.43202451803762
C        11.37178533704863   11.65617358101792    4.40880669396263
H        11.38993714713925   11.05819889479028    3.50151156111120
H        10.35140349115330   11.99174891053597    4.60565630257570
H        11.71270385061272   11.04725490966904    5.24928300885025
C        11.53388682638498    5.14288791893162    0.12835872064444
H        10.52434033750351    5.51088412747186    0.28402242526208
H        11.56483153251521    4.07982530293083    0.37561660994941
H        11.77981204678976    5.25967446727429   -0.93543331530599
C        13.84832383067868    5.54993468972852    0.64096850884998
H        14.49439705637156    6.08108076850823    1.33379036323327
H        14.11332727731178    5.84721882975055   -0.38011902954483
H        13.99429536267967    4.47416453898925    0.74908352474241
C        10.10981108454973    8.47914097123011    1.55013342285435
H        10.56538267185445    9.12910879215586    0.81023564109111
H         9.82158447811689    9.07309631299761    2.42306726560861
H         9.19751311851687    8.04998424570558    1.11283763672240
C        10.43232642440405    6.40942323558421    2.75420823557323
H        11.17523893545524    5.64905520769788    2.97773382481526
H         9.56514301096372    5.93482534733394    2.27624869223017
H        10.08970348690087    6.86511573289001    3.68787301746799

