57
CSD_code = LOLNOQ | q = 0 | S = 0 | Stoichiometry = C32H20Br2N2Ni | MND = 4
Ni       -0.14897697814769    4.04897531663999   -1.35968003445070
Br       -1.67118970074193    5.44513103250642   -2.22109423537994
N        -1.12762631884192    3.60159092698617    0.27321162801532
C        -2.67300144456956    2.41755501850588   -1.08557138509636
C        -1.73023385016415    1.85240737993678   -1.92651939633821
H        -0.72859765227012    1.62857247137309   -1.55246068426488
C        -2.07386151377263    1.44034505729752   -3.22079220852917
H        -1.31438255970084    1.00907538054127   -3.85493442498174
C        -3.35510522838910    1.60138144914946   -3.66863126742432
H        -3.62835052495048    1.29120731615095   -4.66634481443285
C        -5.65895879111159    2.38370589004193   -3.31539949796610
H        -5.90865787932810    2.04458211961503   -4.31022482632163
C        -6.59382251781995    3.00289676095451   -2.53545809232166
H        -7.59889534933039    3.15306372533798   -2.90057890471973
C        -6.24582480061777    3.47207109426757   -1.26058866413277
H        -6.98383831057709    3.98964924246803   -0.66582148891603
C        -4.98074101030882    3.29165905197053   -0.77525122614345
H        -4.71723046026377    3.68819570958622    0.19395565351399
C        -4.00310270732365    2.62260656065173   -1.54019906785753
C        -4.34182016297844    2.18899749429090   -2.85004257280082
C        -2.22192105471537    2.84979272232279    0.24407689987143
C        -2.86196193636360    2.44395964060827    1.42852116226548
H        -3.73333750277420    1.81171435316450    1.36026113334641
C        -2.35661021717310    2.83536658088091    2.64033020637611
H        -2.83230499133058    2.53794257125247    3.56353906067764
C        -1.19171791871575    3.62286523434019    2.68451066775949
C        -0.60368228453845    3.97836534159695    1.45308514779117
C        -0.58480369017153    4.05482737740161    3.89493684077882
H        -1.05261175864537    3.77250017219398    4.82652105728321
Br        1.04879297283282    3.79702616998337   -3.14728213386752
N         1.12426527960790    5.07184551011376    0.24086942809981
C         2.68775949853731    6.23719356044957   -1.13496821070737
C         1.77969279637523    6.86185150521767   -1.96169551596205
H         0.76160289785713    7.00760209780971   -1.62618062613828
C         2.16308451244672    7.33669286373041   -3.22048507295219
H         1.42527826134832    7.81462317387216   -3.84578695806835
C         3.45238633120853    7.18276417436519   -3.64621099675387
H         3.75841996388930    7.54571928304493   -4.61642761468157
C         5.73511216322682    6.34122405256077   -3.27704399497365
H         6.01693294699603    6.72580301055524   -4.24659417711555
C         6.64254753038286    5.67493492100197   -2.50296887965805
H         7.65649416875901    5.53198492130243   -2.84652318584814
C         6.25595804104225    5.15322523804520   -1.26017404847414
H         6.97439790551879    4.60580521968474   -0.66719839998831
C         4.97865159670962    5.32483260171480   -0.80326171898576
H         4.68644900890146    4.89492682979860    0.14460626426284
C         4.02738570516228    6.03714139988669   -1.56286699308678
C         4.40812270135772    6.53145267894323   -2.83859718138233
C         2.21973034329883    5.81278438509784    0.18948475499194
C         2.86680695636263    6.25627127481038    1.36260585457631
H         3.74983034797398    6.86927067166391    1.27024091793748
C         2.35026158408143    5.93379408660276    2.58787452182138
H         2.82295746492224    6.26928843742821    3.50003195205411
C         1.17243419220018    5.16654635234595    2.65980809930028
C         0.59746517342674    4.75929101092547    1.43905507869097
C         0.55097031579037    4.79654269035091    3.88280021931260
H         1.00937845540769    5.12085888665925    4.80553195199308

