60
CSD_code = LOLNEG | q = 0 | S = 0 | Stoichiometry = C32H22Br2N2NiO | MND = 5
Br        2.35889853086490   11.93916214869651    4.03430092645559
Br        5.36423692143103    8.30721126157576    3.82388138562459
Ni        3.92592754378042   10.21642985986627    4.00327064100001
N         3.78127523667618   10.16837235354677    2.18304680331957
O         3.98708254030340   10.09758094942817    6.03790517979503
C         4.80898428927150   10.67024024547527    1.46700646670288
N         5.73819665722157   11.56230211961376    3.47266415873048
C         6.94731570314433   11.88667391657510    1.40741940595478
C         2.76058572012291    9.57807643785989    1.56908278092498
C         4.88037986540099   10.51787736912333    0.06662765944934
C         3.83086997067341    9.83311910856704   -0.56893796438220
H         3.86726343988680    9.67375355539118   -1.63614209362175
C         5.85406328614849   11.38614361965390    2.14475402456923
C         1.57235023318284    9.18448671153036    2.34439849356476
C         5.99649138170146   11.04009434045561   -0.64228694693269
H         6.02662356645400   10.89610065611340   -1.71196926267327
C         6.99500783025531   11.69212142431865    0.00138516409602
H         7.84561670322484   12.07867343887008   -0.54035117545867
C         1.66702707726299    8.54403259312312    3.58172161342564
H         2.62518247573067    8.18403419425251    3.95141205175361
C         4.75095936607799    9.81990341509412    8.10294677716871
H         5.41304171810954    9.62123208284208    8.92001720779630
C         7.17053433666947   12.28311700228136    7.90402602426386
C         6.46776420473858   12.42367583542160    5.57024342516590
C         7.42494963950792   12.00624950252297    6.53431815935523
C         6.68309535629953   12.20843803267215    4.12978630500801
C         5.06816871731909    9.79910928669227    6.78468617043084
H         5.99052891863549    9.57517236787940    6.28645976078397
C        -0.82083351444896    9.26941329380237    2.60096646723801
H        -1.78790398564486    9.56292067437161    2.22157107387527
C         7.82232417378872   12.72210566362624    3.47860351709419
H         8.56428845283918   13.25220829764808    4.05561914526156
C         0.31317413435340    9.53318168940791    1.85706178055223
H         0.23022567463006   10.05446225584214    0.91498272207966
C         8.11037428084760   11.87008773865128    8.87107690860862
H         7.91252248968586   12.09364197142293    9.90981668145211
C         2.77300544987098    9.38901376661334    0.17620997320142
H         1.94634109945483    8.86804582938121   -0.27993216336006
C        -0.71822328130140    8.64575300727952    3.83347505011939
H        -1.60535549618121    8.44930152500211    4.41644617013978
C         5.97740890580574   12.94092123036693    8.27004099823494
H         5.79880771887264   13.14342194467867    9.31629606431649
C         5.30606065937673   13.04303727803422    5.97040106478479
H         4.58274614716805   13.35396713756910    5.23178101287634
C         5.06012286227887   13.30232205683768    7.32414625228274
H         4.13910710550443   13.79038369686558    7.60475798222787
C         8.58538241221354   11.27866750446942    6.19578573971229
H         8.76131941049243   11.01320976790488    5.16342090387573
C         2.96189957237463   10.30827438122877    6.88876536019525
H         2.00396166890462   10.56486173542822    6.47899317945827
C         3.37651984626892   10.15327379777693    8.17113592032985
H         2.77834235053997   10.25806271465613    9.05259323714363
C         0.52528510072399    8.27459429740274    4.31588007634079
H         0.61071191568630    7.77702426153031    5.27093807666093
C         7.94841276381999   12.56754642405974    2.12421632188100
H         8.80210044737728   12.96513832179717    1.59411728485018
C         9.23942321480855   11.19178450319445    8.50802774280114
H         9.95286638612393   10.87646314459867    9.25501587455399
C         9.47128297691536   10.88398166266690    7.15959322469301
H        10.35377782675083   10.32444459644019    6.88672321426974

