51
CSD_code = LOLQAH | q = 1 | S = 0 | Stoichiometry = C25H19N3O3Re(1+) | MND = 6
Re        7.20297997572331    9.30012127829321    5.30556602384655
O         9.34515369472845    7.16414725845163    4.61938184859132
O         8.11920656216867   11.17539894607999    3.01339641477768
O         5.29352202558882    8.31522449289145    3.07084327760817
N         8.60701262089155    9.88116803034126    6.99003936029222
N         6.67655113637253    7.92459301715225    7.03228436077625
N         5.13634643063249   11.35323835179832    6.60852473038871
C         9.43858865089465   11.92698901456184    5.95000710037775
H         9.94334882020039   11.56403359590276    5.05394691783308
H         9.95163210049466   12.82578491946503    6.28122765475148
H         8.41192916385640   12.18123080198133    5.68808128498707
C         9.47706916742628   10.88283899223516    7.01269099906500
C        10.45097184610230   10.98873037365989    8.02145958605142
H        11.15091523202891   11.80781254583484    7.98484056894980
C        10.50872440388375   10.06087089685880    9.02359244553502
H        11.25721259213537   10.11647148043751    9.79888071739765
C         9.55684950890206    9.02696920229774    9.04959090260922
C         9.52624475632164    8.06107164492263   10.09111220723547
H        10.27758521481881    8.12152977462374   10.86287614757627
C         8.57132479954585    7.10219592755757   10.11578141314134
H         8.53377344835099    6.37119809428383   10.90825082116041
C         7.58094495819827    7.03896159729269    9.09898640780307
C         7.60165483444128    7.95483124055091    8.02469783381842
C         8.61298090231116    8.97574375247432    8.00090823449414
C         6.55325162381345    6.08040593175269    9.12222232216787
H         6.51806437861711    5.35536240883092    9.92063439906966
C         5.60661885862965    6.10054073142433    8.13629776739141
H         4.79317129164148    5.39313209631390    8.13602695640126
C         5.68602868870853    7.04393535003739    7.09665961332892
C         4.62735908786260    7.03647120420694    6.04774991525200
H         4.34704311370009    8.05135749217322    5.76719632752271
H         3.74442776548924    6.51102162398459    6.40125965047715
H         4.99086477573769    6.52087605033865    5.15801641789909
C         5.87090504479926   10.62362167168843    6.07785148831082
C         4.25456931413229   12.22170903447923    7.16127444554060
C         4.21141318245701   12.37707815970681    8.54564090409382
H         4.87997686003696   11.80534147128016    9.17216631573200
C         3.31095537319351   13.26583587683521    9.09628762800764
H         3.27725818172710   13.38787465215453   10.16829986018130
C         2.44842042575189   14.00666655604418    8.29258135543811
C         2.50771048531427   13.83468347800483    6.90985084804867
H         1.84414162913621   14.40336497595897    6.27646649249614
C         3.39846285995746   12.95303961885633    6.33673353052478
H         3.44507279992546   12.82148770768575    5.26660932933335
C         1.46516267580745   14.95625104104238    8.89030175684548
H         1.44402208258452   15.88991566009017    8.33254882157536
H         1.70223385322884   15.16769330074680    9.92921451522145
H         0.46425554541870   14.52633384702808    8.84856275656127
C         8.55386584779136    7.95233645263304    4.82300422810791
C         7.80097034293413   10.51258223322258    3.88798565750310
C         5.96985106556356    8.65842614359553    3.92548943786064

