83
CSD_code = LOLRAF | q = 0 | S = 0 | Stoichiometry = C34H48Zr | MND = 14
C         1.02071526710076    3.34310412632582    6.35675679464137
C         1.73949832348734    3.98145885266603    7.20750557207284
C         2.14434465638900    4.55347959088887    8.34731138381651
C         1.70001369553776    4.70073523520869    9.57413355674699
C         2.09148429657417    5.33420344301796   10.72943113355906
C         2.29586221508181    5.84927038261519   11.81097597830523
C         2.55886742740493    6.47598355229554   13.09816318527209
C         4.05733781851294    6.37647093404648   13.41396466969340
H         4.27313355414592    6.84410394366676   14.37292877675068
H         4.64065625062579    6.87560706835921   12.64309550498767
H         4.36768067142926    5.33427675257837   13.45640429469858
C        -0.94493773270476    1.40779794990345    9.50336938772029
C         0.00985773880461    1.08279435577322    8.49079542072752
C         1.30432662203649    1.40343849500416    8.98606622283711
C         1.14809678293922    1.96731425574433   10.27805144957073
C        -0.23782943708180    1.97655734049949   10.60161583260324
C        -0.75450322650988    2.29852957240348   11.97882966332934
H        -0.43417844589408    3.29231451394970   12.29774230548830
H        -0.36145726098511    1.57655639652459   12.69866701976731
H        -1.84005459325371    2.24732740262701   12.02472837970227
C        -2.10896055963288    4.32800849521201    7.74357403930408
C        -2.28897936794489    4.33796846803184    9.16184634582481
C        -1.41001482039572    5.32314290866548    9.70085605205620
C        -0.74217961056991    5.95993996415863    8.61993711294908
C        -1.17152993259357    5.35165688851335    7.41752788585964
C        -0.88647767438910    5.89227663488988    6.04562512750110
H        -1.11107379015675    5.15700752324012    5.27664084102440
H         0.15549990835258    6.19886693001263    5.95335303100058
H        -1.50826998625130    6.77275805624189    5.85935202246222
C         1.28747530579704    3.02240030160722    4.90413950298408
C         1.81132468051084    4.27111017125237    4.17640268377381
H         1.05957388174508    5.05557357782670    4.15349731545203
H         2.07785023692503    4.02474060446535    3.14933626712368
H         2.69502500208318    4.65574195727681    4.68176414370634
C        -2.33063223109558    0.81824235459409    9.51074710133692
H        -2.89174805449446    1.11603570517254   10.39192877069332
H        -2.25156990980516   -0.27264073143034    9.52689743170946
H        -2.90139721506838    1.08568318898809    8.62079961918417
C        -0.33216925336966    0.26505942534530    7.27438772155466
H         0.47910105672472    0.27664435464571    6.55049452479661
H        -1.24018462755807    0.63350981834325    6.79207353004971
H        -0.51037628550250   -0.77666509935460    7.55848715972516
C         2.63796459039602    1.06078661932008    8.38276151597050
H         2.51992364588001    0.52013913714242    7.44798712955303
H         3.19959236823596    0.42453092967454    9.06950074297875
H         3.23796236743026    1.95439251990201    8.19239220283438
C        -2.90276355545807    3.54520644012510    6.72738727063482
H        -3.59180688965425    2.85384154885632    7.21109342586088
H        -2.24575861133751    2.97361952136570    6.06457337491329
H        -3.49811403084345    4.22079610398998    6.10773277331235
C         0.11150002582438    7.19426695580376    8.70862826574807
H         0.50633669028073    7.32649650253360    9.71391984543554
H        -0.48215348707370    8.07674156630135    8.45553845961854
H         0.95079325373541    7.14757514530734    8.01308637107088
C        -3.49616425475088    3.81726008188869    9.89822918166876
H        -3.24707976525150    3.40695441657644   10.87465596341425
H        -4.02509409202197    3.05911843577966    9.32728631055508
H        -4.19144029038529    4.64566285746637   10.06190971576430
C        -1.37515075535310    5.79916163887935   11.12928339640539
H        -1.99517230001165    5.17044861692930   11.76449954309604
H        -1.76016654223464    6.81957405120302   11.19190574572828
H        -0.35457872697289    5.80295526812791   11.51899190891585
C         2.26801799963728    2.22530053784776   11.24833929179174
H         1.97979886773145    2.95856025305239   11.99921631991685
H         3.15963477554938    2.58718949226589   10.73774703838080
H         2.52978125437253    1.29651968708184   11.76394928932408
C         0.02510637861812    2.51726598238727    4.19626442993250
H        -0.73827632477563    3.29248158391842    4.16561947733883
H        -0.38186466059503    1.64630780575584    4.70562817336672
H         0.25771731401127    2.23536360540695    3.17029739218464
C         2.37533114108047    1.93931937609060    4.81877664852409
H         2.02440081984352    0.99705979181451    5.23315901527879
H         3.26229921188142    2.24953217074199    5.36710412620096
H         2.65197711617509    1.76743662844304    3.77942368092879
C         1.75033572007635    5.75480625595095   14.18697762470807
H         1.94039740361465    6.20744061642091   15.15839820020051
H         2.02915706607741    4.70366846897809   14.23486345617798
H         0.68369325378531    5.81957139901011   13.97859011866311
C         2.13756795515918    7.95057679009723   13.02973554957463
H         2.33349225503488    8.44232925371487   13.98074946974475
H         1.07519708934672    8.03502090133234   12.80769201293476
H         2.69263502407222    8.46735667385916   12.24943685920234
Zr        0.01456932193023    3.53137870681040    8.65126391976434

