65
CSD_code = LOLREJ | q = 1 | S = 0 | Stoichiometry = C27H32N3O2Pt(1+) | MND = 4
Pt        3.92895090100660    9.07173932498597    6.29072595848988
N         0.59336667375001    9.15300625636640    5.69078498885750
O        -1.18076642534929    9.17287161045650    8.03718840845841
O         0.08142747569559   10.84925805041654    8.83828340787589
C         2.88600756110756    7.65486329060255    7.34125703250685
H         3.02828879206005    6.65760720717025    6.90613271984355
H         1.81177334963427    7.82882632125160    7.40738537916439
H         3.25212045502277    7.62415326558352    8.37351421257872
C         4.60890984970683   11.48848359040324    4.68661847779104
C         3.20488036096771   11.44701509969486    4.65116221806033
C         2.51718080401872   12.43737552034720    3.96578772435380
H         1.43818780539850   12.43150241272629    3.96260423342085
C         3.21208881525888   13.42938987149693    3.29276130530186
H         2.66933305621198   14.19157049864049    2.75615636397936
C         4.60033659396065   13.44935660243361    3.30506012387251
H         5.13274720179020   14.22194984139321    2.77310286195775
C         5.30411121948835   12.48896773182828    4.00258392145292
H         6.38286237665305   12.50833719527152    4.00853096384824
N         5.71748932822129    8.32711724927956    6.86062141586370
C         6.74779430716492    9.13879239768104    6.50239815452438
C         8.06738807643989    8.83315358500690    6.83762627403116
H         8.85569978208858    9.50887031419899    6.54580531835894
C         8.34466577084866    7.67155482306846    7.53307862133970
H         9.35722468013735    7.41983170131782    7.80490567063913
C         7.28657708207678    6.83757585655735    7.86707637870412
H         7.45199627747031    5.91562578172056    8.39974614060414
C         5.99713197174151    7.20346456919451    7.51655273244779
H         5.16645997207112    6.56532327508684    7.77911601752613
C         6.41336144145476   10.31916436567057    5.73935091262199
H         7.20420977981673   11.01348204765079    5.46892867420671
N         5.17838783801910   10.46615667690061    5.41701306473182
C         1.81742301114421   10.74935319075041    6.66727562293115
H         2.10211965864081   11.54936581095828    7.32539948072721
C         0.69697042052428    9.95845764692669    6.79956218094009
C        -0.40695120036968    8.12024603256865    5.52665563720545
H        -1.36701656803830    8.50797812115629    5.87132728688249
H        -0.14553236415748    7.27755377532569    6.17564536563503
C        -0.47793389146359    7.66609862866341    4.07802978058724
H        -0.97846350367290    8.42413638881589    3.47648717896121
H        -1.07093049491057    6.75350228166069    4.02640730343760
C         0.92804785028662    7.41195197795766    3.54804279191119
H         0.87671951375529    6.97117738147964    2.55588807936514
H         1.43537822058807    6.70508493517054    4.20858810414575
C         1.74157561717746    8.71340371032727    3.50105425013782
C         1.61495405446870    9.38540519599262    4.84902449076807
C         2.44085852167195   10.41093100978124    5.41410320892838
C        -0.24158444831997    9.92406173951392    7.93179575893224
C        -0.75953684774613   10.91306006630042    9.98584372352876
H        -1.79525561387073   11.08522261775309    9.68794987498286
H        -0.38979113798675   11.74036975553906   10.58487738663879
H        -0.70576635139405    9.97799083525533   10.54614566278573
C         3.24151884646096    8.40774238844707    3.27145467046118
H         3.76959113152119    9.35665799079234    3.15067485342717
H         3.62329471059517    7.90930741187778    4.18568141087005
C         3.58949358877378    7.52271826293759    2.08107306652651
H         3.08145811149593    6.56480792604890    2.12876504399124
H         4.66065903995419    7.33280858808764    2.08125574185613
H         3.34286250092936    8.00842135394210    1.14245041733782
C         1.19505120468771    9.71862281867109    2.44628203041322
H         0.38915785805509   10.29619492202197    2.90508834803556
H         1.99526241844590   10.42181407370209    2.20819634653876
C         0.65856454344070    9.13119425243846    1.14396692910982
H         1.39169991329950    8.50937182567611    0.64241801707163
H         0.40173263740566    9.95020203933344    0.47586745366599
H        -0.24012412412044    8.54339870868380    1.30476282341173

