22
CSD_code = LOLSAG | q = 0 | S = 0 | Stoichiometry = C10H7BrCrO3 | MND = 9
Cr       -2.64619760596868   -2.12049937819027    7.02141647696924
Br        0.70918865378956    1.65351486718871    7.72246901438234
O        -4.98770882898337   -1.56876265353311    5.26972633303450
O        -4.31773878607705   -4.53158875697610    7.53180990941382
O        -4.56010236228232   -0.95397450061071    8.97986999872041
C        -4.05247563492746   -1.77443513262508    5.91338243507090
C        -3.63224720146710   -3.62483249200139    7.33970271272590
C        -3.79112100137202   -1.39864481754423    8.24277960721169
C        -0.77780359696392   -1.55034689838754    8.16481488589090
C        -0.62661480952498   -2.87450340376228    7.76681007785262
C        -0.75856232068222   -3.22129234905407    6.40469228830645
C        -0.99801107746723   -2.23148000767681    5.45263692694502
C        -1.16212768713910   -0.89294718092753    5.85736811230422
C        -1.06050322243756   -0.54053863880825    7.21065851426197
C        -1.12658873700961    0.88306018826655    7.63291232512620
H        -0.60153619465071   -1.26820334720601    9.19700839070900
H        -0.34619615902664   -3.63048636828288    8.48964608417311
H        -0.57444170786379   -4.24219743984262    6.09290424592167
H        -1.00729656446622   -2.47705648639135    4.39798605243077
H        -1.27943584179123   -0.11800246238330    5.10765276898191
H        -1.66760968423193    1.50605579175344    6.92279117505807
H        -1.53836962945645    1.00476146699483    8.63356166450927

