25
CSD_code = LOLSEK | q = 0 | S = 0 | Stoichiometry = C11H8Br2CrO3 | MND = 9
Br       13.95708302114017    6.82076953021118   -1.21568884504734
Br        9.01695477736165    2.86481400260652    1.69269921218331
Cr       10.03993418223545    4.16984291674170   -3.12734243319515
O         8.51189015594386    1.81885457426598   -4.12886495185089
O         8.03855838715958    5.50330966603961   -4.87927843058753
O        11.38169984611677    3.93536503978837   -5.77523683174986
C         9.11849554508868    2.70750369956003   -3.71525736592447
C         8.80791807922469    5.01848488735082   -4.17118899533242
C        10.89391211304462    4.02012003310007   -4.73444114810099
C        10.44784959076384    5.91671783957907   -1.75461366352668
H        10.29111068539493    6.98485766279463   -1.85396151450176
C         9.44936141584513    5.12279986112881   -1.16371946063073
H         8.53373816055460    5.58697494779032   -0.81547517080992
C         9.66478117422217    3.75468909311268   -0.95083900890314
C        10.92907968009036    3.19726000068480   -1.27458610327256
H        11.14161536573593    2.16973954103836   -1.00286983833105
C        11.91438454469876    3.98191702397133   -1.85682653708409
H        12.89973919252122    3.56911590971598   -2.04049943283124
C        11.67395300527902    5.35306077056660   -2.13247917447483
C        12.76352717667001    6.20146757247522   -2.68421962843904
H        12.38858383838679    7.10747063782843   -3.15727206329383
H        13.41007864342718    5.65663619789047   -3.37038492284501
C         8.64324159007599    2.92210734149483   -0.26081913306042
H         8.66098813994325    1.88384642229383   -0.58883706164455
H         7.63852168907528    3.33067482797028   -0.35519749674584

