89
CSD_code = LOLTEL | q = 0 | S = 0 | Stoichiometry = C38H42N2O4P2Ru | MND = 6
Ru        5.09093258558684   -5.67944613391224  -14.72938690576215
P         5.44404553152086   -6.80919960675467  -12.76453669083496
P         3.19135747272768   -6.79057421999059  -15.23848482458521
O         7.55326500331808   -9.04938174510011  -15.18775462281520
O         1.71845600316888   -3.84174935579078  -12.98839339201342
O         5.34191927005902   -4.41461457146004  -16.48980304224301
O         6.69318144073571   -4.22799629123941  -14.79069803705467
N         6.44570877528473   -7.10732940178372  -15.45690999327440
N         3.71704292519557   -4.30178549253314  -13.87955256200327
C         4.00175457659494   -7.43411341641306  -11.83846631339364
C         3.20441854834376   -6.54590665486760  -11.11929683368851
H         3.50904801483375   -5.51024995080262  -11.03934592181295
C         2.04194368191873   -6.98107160607870  -10.51122643882007
H         1.42782836126886   -6.28619007513874   -9.95542669677921
C         1.66066527685635   -8.31030570759297  -10.61925723342084
H         0.74890518139809   -8.64943557640934  -10.14915706417243
C         2.45349989887592   -9.20188067868868  -11.32314706915816
H         2.16118165921608  -10.23932483268538  -11.40095001422121
C         3.61852586461922   -8.76644898540774  -11.92909729331736
H         4.24777282626383   -9.45066001990882  -12.47901484300046
C         6.44422862134896   -6.04968246088240  -11.43586901844523
C         6.25249856821580   -6.26327359463501  -10.07565306637665
H         5.41168515746198   -6.84881751633735   -9.73058789574957
C         7.14277512586547   -5.72610430791314   -9.16093118529600
H         6.98887542577300   -5.89267605713827   -8.10381220133641
C         8.22852157864110   -4.98372440971210   -9.59268226939004
H         8.91757622974550   -4.56569716860435   -8.87287653685962
C         8.43520335343497   -4.78617552931881  -10.95020881913528
H         9.28835075868078   -4.21530630890412  -11.28827483393655
C         7.55234086067271   -5.32230290188567  -11.86613349310172
H         7.69590852186483   -5.18412879578024  -12.93076317685951
C         6.37297078489519   -8.18685008087134  -13.30918126906359
C         6.79152931775233   -8.07057511523159  -14.62186550931345
C         7.65396877241004   -8.77034455498359  -16.57172984171779
H         7.15935472288591   -9.57355051795414  -17.13108123654716
H         8.71230112053360   -8.74707848710520  -16.84721439553292
C         6.95670936120032   -7.40096174721622  -16.78444792069162
C         7.97591379672684   -6.35124556412130  -17.24924045635063
H         7.46219756399497   -5.43753022477804  -17.53143253042834
H         8.52247226008149   -6.71958860581093  -18.11579944627800
H         8.67980613763646   -6.13310771013252  -16.44748719982671
C         5.80786125313484   -7.48433268767450  -17.79361803728406
H         5.28492151567830   -6.52899590049001  -17.81434393674597
H         5.09812232070272   -8.25743916322215  -17.50197293227602
H         6.18864708856685   -7.70461347464711  -18.78874602209682
C         2.68505945702170   -8.53240686245827  -15.06198939256201
C         3.66747158227802   -9.51384565779210  -15.12354755436317
H         4.69787120740092   -9.21079290096599  -15.23197360980941
C         3.32907169531686  -10.85121276350110  -15.01511159401378
H         4.09949700257429  -11.60711446947153  -15.05909069940256
C         2.00484593075385  -11.21667508446146  -14.84136501498719
H         1.73757720009412  -12.25931613147884  -14.74932472651362
C         1.01986336571255  -10.24305091354054  -14.78843771520923
H        -0.01429329791811  -10.52844179705827  -14.65906086359036
C         1.35360259374795   -8.90617267109172  -14.90411913189233
H         0.57673889013450   -8.15597394805068  -14.87931253324529
C         2.52676616028044   -6.39269881895686  -16.89085221096333
C         2.20100605883110   -7.35619968247310  -17.83819796813708
H         2.28854798431683   -8.40527408323324  -17.59289182096876
C         1.76358337389812   -6.97129133744534  -19.09389888801057
H         1.50998582474999   -7.72343698845955  -19.82689836548920
C         1.65528453810543   -5.62882736285474  -19.41416349834047
H         1.31691296674870   -5.33303884515211  -20.39643524871238
C         1.99049301076357   -4.66398430476173  -18.47646407421680
H         1.91608337164674   -3.61625097698333  -18.73011860976705
C         2.42875277918757   -5.04329800079954  -17.22290155195252
H         2.72168058818844   -4.29891637446092  -16.49347942015191
C         1.91067254541638   -5.94427475428610  -14.16962267536819
C         2.51059722954885   -4.67701823485034  -13.68512412595310
C         2.53963410284975   -2.76032355742165  -12.55797619127468
H         2.65829693915416   -2.82386719141644  -11.47108905120471
H         2.04375085637790   -1.82148589159495  -12.81141267536420
C         3.88139183949151   -2.95964625217866  -13.31010864483626
C         4.00978015881502   -1.94152655780689  -14.44725940811813
H         3.12836420567542   -1.97231652429649  -15.08695628138556
H         4.88179200040502   -2.16487819438251  -15.05414416583032
H         4.11522201067195   -0.93960101163429  -14.03681167335333
C         5.09078500808114   -2.90127087510806  -12.38580841362987
H         4.98323295387073   -3.60535229277181  -11.56306656430577
H         5.20555565772223   -1.89784227765482  -11.98230838227687
H         5.98574357625594   -3.16989266112730  -12.94315731674073
C         6.33740670536691   -3.88627818001081  -15.94271458428927
C         7.11460978520978   -2.79808658433068  -16.66892809580760
H         7.19948891264598   -1.91810234778381  -16.03347623161794
H         6.61214413037788   -2.54267817088684  -17.59865805425373
H         8.12093306857619   -3.15426006466669  -16.88120776103247
H         0.97529718653129   -5.72693890069830  -14.69484907663668
H         1.69273719494434   -6.58594687702995  -13.31014276808579
H         6.81366853248304   -8.90972541469933  -12.64188434332736

