38
CSD_code = LOMDEY | q = 0 | S = 0 | Stoichiometry = C18H13Cl2N3OZn | MND = 4
C         0.09798881362408    1.88804620997069   -0.42555487214222
H        -0.14357049774231    0.94468954480275    0.04395878306148
C        -0.04509750606505    2.06714713854231   -1.79101592160327
H        -0.39775851135877    1.26129706802107   -2.41356981047364
C         0.26279463681006    3.31015412501794   -2.32514463440689
H         0.14661169335199    3.49867527092323   -3.38206720347088
C         0.71257969886956    4.30940658130038   -1.48459425887608
H         0.92974439416329    5.29067582327159   -1.87055854497976
C         0.85072222065071    4.04325493068545   -0.11977846096843
C         1.31701982369017    5.01320260893998    0.84572121385999
C         1.96370357898342    6.24885938843944    0.73693504321240
C         2.43162797360147    7.06802527427132   -0.30808352088733
H         2.32716557791185    6.73866659173380   -1.32782830932666
C         3.02147243315879    8.26144471422199   -0.01521608910968
H         3.38653422978890    8.89925186283244   -0.80405127682522
C         3.15119513074796    8.68149828425491    1.33101281014851
H         3.59007747500945    9.63963401482461    1.55405775418155
C         2.72625584974812    7.88124979771122    2.33860875210043
H         2.79662871548721    8.14451522976108    3.38042034712538
C         1.68363643073011    5.70932185451750    2.87770617086154
C         1.73747896584295    5.67259244431426    4.33124025169848
C         0.61060281401285    5.27201901041745    5.04714310468519
H        -0.30976116638788    5.08561862233513    4.51422801399489
C         0.66595557463536    5.12228749120011    6.41892265712376
H        -0.21316615112934    4.81070738399683    6.95957984758587
C         1.85522042265657    5.35349805568634    7.09009196653701
H         1.91051016094690    5.22428494050508    8.16017466211100
C         2.98541132124002    5.73667868629808    6.39179053600743
H         3.92137116692219    5.89344187821201    6.91167471024232
C         2.94069594359389    5.89597053190674    5.01385503401721
Cl        2.07342548579557    1.83915185780766    3.62195120709830
Cl       -1.70042358853660    3.00837313435650    2.98606115592942
N         0.53248986285045    2.84083890133613    0.38175392147529
N         2.17378087506486    6.67184803174685    2.04946401947140
N         1.16763528357845    4.73397815911856    2.16400097744034
O         4.04705908468422    6.24755556107037    4.29714019624779
H         4.82604961428788    6.19548560254532    4.86448947321367
Zn        0.44903216877711    2.83775339310452    2.54018029363782

