124
CSD_code = LOMFUQ | q = 0 | S = 0 | Stoichiometry = C55H63BrOP2PdSi | MND = 4
Pd        8.40130637816418   14.67822930891436    1.35463853645726
Br        7.24126745188982   14.16724562592838   -0.74273448312502
P         9.49548046000585   16.43290008995598    0.41920600445288
C        10.80131013657216   15.57039351648266   -0.53745107374220
C        10.47668753437814   15.00581350383822   -1.77115237969476
C        11.42196976484798   14.28716607093161   -2.47859241799175
C        12.69627133728043   14.11227471475229   -1.96350106504209
C        13.02011973315859   14.65696799107359   -0.73235259534663
C        12.07967994742697   15.38022031611487   -0.01981114441150
C         8.60385455866577   17.34790706267444   -0.87670722710796
C         7.23222060838916   17.51109437730875   -0.73576779952518
C         6.50635252911603   18.19386251564837   -1.69414320395679
C         7.15192456110379   18.72212403981982   -2.79876817720549
C         8.52148417557996   18.56549562190476   -2.94434839266551
C         9.24958666079458   17.88043672200145   -1.98978214336044
C        10.48224947091517   17.74465438340200    1.23154421489073
C        10.56401664218592   19.03316880069239    0.71364764350157
C        11.40154089410018   19.96782590798326    1.29535665972946
C        12.16919155580861   19.63058403516777    2.39721789457996
C        12.06985226681526   18.35959256913684    2.93765213071901
C        11.22479269919971   17.42606569902706    2.36585121262542
P         7.82033555428487   12.57297858049731    1.98077714326909
C         8.68855885099873   11.54724529125631    0.74791721696065
C         8.21569848846620   10.33476963118957    0.26478117954650
C         8.95211033256991    9.63643963581966   -0.67690019854863
C        10.15910313359647   10.13692657630581   -1.13359101592807
C        10.63281722614075   11.35000412818586   -0.65839187407134
C         9.89662127107742   12.05755766781099    0.27155977948685
C         8.48899934178923   11.92174831082741    3.55065361596375
C         7.82441328929688   12.26537625589899    4.72480197343557
C         8.33417729871354   11.89183693067530    5.95168065671416
C         9.51447564469809   11.16844777617560    6.01926427256352
C        10.17531606621633   10.81562215090140    4.85553291404324
C         9.67015731242959   11.19353550420640    3.62376333261702
C         6.12760068520508   11.90065177851968    2.04759520600173
C         5.05515766715286   12.60704785776443    1.51625007003876
C         3.77680977101653   12.08110681436952    1.58005586520308
C         3.55982359177970   10.84966215905773    2.17305203221483
C         4.62578118767090   10.14158147835479    2.70613061453149
C         5.90417925860873   10.66269785943192    2.64840649404615
C         9.12082880666127   14.99631781942251    3.16565628459830
C         8.36189854539712   15.77445915610937    4.03639696172839
C         7.13711037384602   16.51229863249822    3.52789204979830
O         6.79971968058062   17.60604394059415    4.34113422637955
Si        6.92983568335573   19.22630255804992    4.22480121828160
C         5.17297388874161   19.89583329659022    4.64680770720861
C         4.50499826449502   19.18196788400662    5.82018806422651
C         5.18611105356448   21.40128437066854    4.90059233778379
C         8.27164259180370   19.85071295342435    5.45750065539885
C         9.64576714815290   19.25911019461874    5.14524756323384
C         7.92083885193715   19.56571459316348    6.91686842826361
C         7.40372567400773   19.77016353401692    2.43404023889916
C         6.19225612840000   19.82054542285301    1.50290141368573
C         8.13593749404280   21.10802655152564    2.35392444899114
C         5.92477082406007   15.55211567957633    3.43761321757377
C         5.39755203297359   15.20359491548153    4.82500472339026
C         4.81946081700257   16.14824730987424    2.57151462429833
C         8.72617054873638   15.85814759196370    5.37430140234457
C         9.85363374186242   15.20529336145628    5.84096534101406
C        10.63155257257181   14.46587291691440    4.96896281753136
C        10.25590085288989   14.35441911163313    3.63869902718722
H         9.48343728869401   15.12678676255070   -2.17981307755777
H        11.15717194243087   13.85903332041525   -3.43381264934200
H        13.43461084779104   13.55114236970589   -2.51810709682051
H        14.01029142201328   14.51960231050044   -0.32198797900919
H        12.34804269799106   15.80683409398592    0.93641119504161
H         6.73403991022239   17.07419266482217    0.12251273414350
H         5.43833707661277   18.30555125535947   -1.58393306919291
H         6.58777204199160   19.25031426023747   -3.55302306333956
H         9.02400304026484   18.97333205732489   -3.80943771401305
H        10.31685987495967   17.74912647876899   -2.11005638107313
H         9.97020936758733   19.31476523161382   -0.14306030390335
H        11.45625362097603   20.96437830849002    0.88206213941999
H        12.82976358632592   20.35991543219832    2.84207282760658
H        12.64449091380382   18.09375101192377    3.81252389160494
H        11.12908516066909   16.44729987460029    2.81407081504323
H         7.26713997837527    9.94621478782435    0.60601388711841
H         8.57632649833983    8.69878227756798   -1.05935455953824
H        10.72757556797168    9.58812647360127   -1.86977966964796
H        11.56800985888785   11.75031075903975   -1.02115047232484
H        10.25598718927986   13.02874096982033    0.63038488134952
H         6.90115189443536   12.82436994487122    4.66429521098288
H         7.81424979763200   12.16665078126972    6.85766551330143
H         9.91727022205191   10.87963329672201    6.97878139740298
H        11.09262545855752   10.24664390940131    4.90529992629823
H        10.19438830321337   10.91878785378682    2.71817333551802
H         5.21673289591085   13.56200463739504    1.03679542835572
H         2.94991308884197   12.63523834741422    1.16166541511499
H         2.56205602603989   10.43902535583319    2.22192646652085
H         4.45993323076317    9.17971035934729    3.16947867742748
H         6.73230137307057   10.11383376822219    3.07687932474998
H         7.36205222308885   16.88044162538485    2.50341296556030
H         4.53269388842166   19.72247215660531    3.77495567656725
H         3.47716545633687   19.52469922975929    5.93916708251360
H         5.03438894982419   19.37400634185668    6.74832188945185
H         4.49130161833048   18.10916280368542    5.65520523733886
H         4.17816256798817   21.76628979696787    5.09596226658035
H         5.80463724343878   21.64116284610443    5.76160316418281
H         5.57987615336834   21.93816774352350    4.04180425343311
H         8.35117135662723   20.93727099135181    5.35167022520624
H        10.40084444258114   19.66522347789012    5.81828820350341
H         9.94529959769215   19.48034852429953    4.12502243434534
H         9.63312244614936   18.17847971575356    5.26056658486579
H         8.74612672020878   19.85040429741388    7.56948885538531
H         7.04249839252753   20.12661629962543    7.22361596840912
H         7.72015568965308   18.50805603589069    7.06462289475381
H         8.08828137388926   19.00630389434305    2.04041602111124
H         6.50850694867666   19.99181762319439    0.47424259268452
H         5.52751287197450   20.63157909114635    1.79030976031494
H         5.63030702487142   18.89145276981164    1.53573248077322
H         8.37505804287347   21.34387490486346    1.31698996049886
H         9.06420237713865   21.08774253669756    2.91697178946625
H         7.51549335969466   21.90966311701218    2.74720967319693
H         6.28741579337544   14.62728411610800    2.95456864435108
H         4.62724162828435   14.43751646762292    4.75257035798820
H         4.96877072469889   16.08574494271534    5.29219421510001
H         6.20015427090795   14.83910097223692    5.46180191483808
H         3.94133436468845   15.50603365153468    2.58692537405838
H         4.53963598614177   17.13025620944417    2.94722449068729
H         5.15225525865277   16.24252143163602    1.53758848292735
H         8.11390982187356   16.44194809035093    6.04519973762399
H        10.12532644030810   15.27671371448149    6.88415730145990
H        11.52111767266294   13.96287396070404    5.32158089306782
H        10.87146820396046   13.75934061076655    2.96765735281753

