46
CSD_code = LOMHEA | q = 0 | S = 0 | Stoichiometry = C18H19NO6SW | MND = 6
W        -0.25110123937421    5.41438500501773    1.80979113026576
S        -0.53073547790327    3.36875584759116    4.65606015790508
C        -1.06361682487036    2.50679449432324    6.11945219027417
C        -0.48048602227234    2.71068153011007    7.43475450886679
H         0.31759779662269    3.40268374295199    7.62463504361158
C        -1.10853595391765    1.89024981421935    8.29946970208383
C        -2.14434190261518    1.07306453898477    7.57270676639402
H        -1.90284032454798    0.01012089512147    7.65590224605264
C        -2.00615305618098    1.54948479399799    6.15608157787606
C        -2.95465952841320    1.06221757497224    5.12622248055308
H        -2.78536660396264   -0.00278813686081    4.94543384254044
H        -2.80856577025200    1.59258889679309    4.18377934458683
C        -4.38668219906298    1.25643310596288    5.64740741253021
H        -4.61506953586849    2.32446347491368    5.68986640028165
H        -5.09188750332596    0.79411792301090    4.95543960785165
C        -4.55015960747197    0.65134771215850    7.04038268069011
H        -5.57638154790983    0.79881405674088    7.38228989662707
H        -4.36380511042530   -0.42357340911709    6.99273345617119
C        -3.58856549890551    1.28983672004197    8.04092876623949
H        -3.72203778023007    0.86172055002275    9.03475638458580
H        -3.78320821556109    2.36281412080002    8.10554655278302
O        -0.94853372051763    1.69646752507273    9.61861714633489
C         0.06716632668453    2.45382657862392   10.25720459412262
H        -0.15112519283671    3.52486207433298   10.14789835883367
H         1.03319830388148    2.24699019805120    9.77819493951863
C         0.09930179579676    2.06076269642497   11.72408488348903
H        -0.86439761037296    2.26116069808457   12.18425997908350
H         0.86677115163526    2.62888058656746   12.24131161210322
H         0.31520631306752    1.00032253443256   11.81982798109664
C        -1.48226197641390    4.83218386051754    4.72656791706143
N        -1.39024363602239    5.63291216176954    3.73465740010069
H        -1.95556828554825    6.47756009814072    3.83973458199248
C        -2.34069268747741    5.07030045606430    5.92603714793191
H        -2.85332638351191    6.02777429269466    5.84531531725137
H        -1.73818610833428    5.06301758948178    6.83308888325721
H        -3.08084873649493    4.27653595035029    6.01846385002398
C         1.42286773108433    4.87488556312333    2.76391555249912
O         2.42382404970035    4.58880123754901    3.23128335365693
C         0.31134372243590    7.32425694410301    1.97338057559306
O         0.65779623753928    8.41202258232376    2.01213650201939
C         0.72828710267291    5.26208528361452    0.09689777063349
O         1.29163233295062    5.17593866485237   -0.89698102429333
C        -1.90207408585666    5.95525206788486    0.82504061713114
O        -2.81569615063443    6.25383685906942    0.20712053318932
C        -0.81922652840491    3.50768609319544    1.61013957798411
O        -1.13861205856504    2.42966415190644    1.40976180061239

