47
CSD_code = LOMROX | q = 0 | S = 0 | Stoichiometry = C20H21ClNO3Rh | MND = 6
Rh        1.83416248997293    0.43831684102270   13.73688823852286
Cl        2.27744425343426    0.51738305817755   15.87083368070720
O         3.61310759825252   -0.68435122094941   13.24204759661894
N         2.76546186081632   -1.60344370672508   11.27746605047646
C         3.73722431169983   -1.23915713033231   12.16802316829284
C         4.80817238484253   -2.28279860614691   10.47875356946464
H         5.42822426192336   -3.17849722399574   10.49324072147943
H         5.17367723065243   -1.59912550378487    9.70509998071802
O         4.93355551292948   -1.63701746789273   11.74032362644502
O         0.62036078809802   -1.98998216197405   10.65096242427775
C         3.31027197370299   -2.57622513749583   10.33353760984327
H         2.94187449345428   -2.34288037892183    9.33015182441249
C         2.89099733289289   -4.01723205227191   10.69107717538141
H         1.79730388130893   -4.02899864074303   10.66127291152284
C         3.40910947200328   -4.99461100066245    9.63918532474686
H         3.08041864166107   -4.69996391388539    8.64555085569142
H         3.02440891044266   -5.98988335280871    9.84391699897855
H         4.49562410181103   -5.04543067192415    9.64324210039916
C         3.34123665282265   -4.42116869935956   12.09284218619056
H         4.42571536479121   -4.43464889433810   12.17944649387417
H         2.97323681163887   -5.41866479793622   12.31901002339691
H         2.94371656249296   -3.74233512568472   12.84509892533428
C         1.38776316376443   -1.25817960829454   11.23993942244115
C         1.01698584946429   -0.00089686453196   11.85501581733999
C         1.71701057137601    1.23510926019647   11.83294535839325
C         0.66827714559239    2.30984761638439   12.17362019935023
H         0.93652652157167    3.33307532999666   11.92484988066696
C         0.43574604010070    1.98290134787057   13.64967605408731
H         0.44553821079158    2.72283639483902   14.43949580425167
C        -0.24155092634635    0.75808831118403   13.66497369392614
H        -0.83148714402092    0.36070150368816   14.48124759168797
C        -0.43654649140244    0.35344148884615   12.20293745330399
H        -1.17423826833987   -0.41328609462570   11.98650949048354
C        -0.58848477879132    1.71844086836953   11.52334137442899
H        -1.49956523373522    2.23991410045327   11.81500530857917
H        -0.52189427122193    1.66272101221861   10.43702987602661
C         2.98510972359335    1.53770888631399   11.16401137941907
C         3.93417038295133    2.31192405351441   11.83286637406155
H         3.70702675531976    2.67660241158156   12.82908870755992
C         5.15601238394085    2.57488238448036   11.24440657154646
H         5.89129622246661    3.16256017495523   11.77284120573638
C         5.44018371718773    2.08183571822705    9.98052682158241
H         6.39631358430643    2.28594615698897    9.52242522374743
C         4.49553852994144    1.32817505626451    9.30354619684439
H         4.71080557869689    0.95422019659945    8.31245344059774
C         3.27278564723435    1.05473330499909    9.88940170481090
H         2.52907219391386    0.47471277811457    9.35957356235125

