47
CSD_code = LOMSAH | q = 1 | S = 0 | Stoichiometry = C17H23ClN5Ni(1+) | MND = 6
Ni       -0.13393362470431    8.93254899024494    8.57414398428642
Cl       -1.96366672616825    7.95849154951158    8.89227579451079
N        -0.79488831967536   10.44818694501585    9.68801908869008
N         1.59226577259552    9.88431620436270    8.34505050731604
N         0.66194050451817    7.45374350917183    7.67262504339683
N         0.82932144693606    8.39132083105240   10.63333591325428
N        -1.06467195164440   10.27202542783759    6.98902685823565
C         2.38202116967261    9.13570503625877    7.36180110048531
H         3.45307966075571    9.16878441719088    7.59857267907165
H         2.24774812541538    9.59370296053199    6.37504249651463
C         0.20401910498485    9.32140012603170   11.57037260448771
H         0.79599759647278    9.44523894533161   12.48854392389206
H        -0.78358522176136    8.94171893124376   11.83937674976317
C        -2.85114532573564   11.85879551854383    7.02523136457455
H        -3.37416316506281   12.64253849242846    7.55023571760524
C         2.22667666656157    8.75040455830328   10.42724013874400
H         2.72514844557781    7.96414638348639    9.85627819489051
H         2.76846909487817    8.88510091285626   11.37521501835124
C         1.91101146787819    7.71129398338613    7.26108185371762
C        -1.74733896665878   11.24806709969137    7.59709300201127
C         0.94168077868886    5.18036631686077    7.00381760878748
H         0.51112073729578    4.19630415861922    6.91920197153800
C         0.07818479990746   10.66852629047369   10.84781364677355
H        -0.36808581428058   11.41654867547614   11.51897067769614
C         1.48603513385815   11.13724661686545   10.45049838903464
H         1.44375094424434   12.07048085896200    9.88580019401259
H         2.04172152153318   11.34426792429949   11.36595772787063
C        -1.22372050679475   11.64626572184874    8.96002895473682
H        -0.37250926270800   12.32064418197731    8.82057496247848
H        -1.99462471864629   12.19349550688194    9.51503349200818
C         0.19377056324932    6.21208305399124    7.54264677345119
H        -0.81851708061023    6.03663542985179    7.88072531351595
C         2.72426465674978    6.72593995720430    6.71738640900608
H         3.72481127525684    6.97534037670544    6.40048398974510
C         2.24194481200673   10.07108330039563    9.64869296843628
H         3.28219856426350   10.40302462075387    9.50831413910004
C         2.23708871986500    5.43709787958981    6.58532447265991
H         2.85254739757306    4.65675071659680    6.16624047206959
C        -2.57015169950272   10.42407245910166    5.14177267199435
H        -2.86620254526476   10.06236099814487    4.17081473119585
C        -1.47290363615258    9.87816785000226    5.78679908425763
H        -0.89404133603737    9.08854861490258    5.32454449432914
C        -3.27285284946911   11.43652808619730    5.77381468271941
H        -4.13524070303367   11.88627096873080    5.30721188501813
H        -1.64716172450299    9.99208239412776   10.03114237325419
H         0.75711021421216    7.44395453735533   10.99519020981577
H         1.40527600346268   10.80978168160250    7.96403567069559

