223
CSD_code = LOMSIQ | q = 0 | S = 0 | Stoichiometry = C62H144P2PtSi14 | MND = 4
Pt       -0.00016400945923    1.41016848491599   -0.00007737263129
C        -0.62709160622620    2.87056152613309   -1.33128138851865
H        -0.23958758611170    2.66555198784335   -2.33278693001207
H        -0.35787357985052    3.89913653497216   -1.08603211597489
H        -1.72178888816492    2.83250440457620   -1.39827023801741
P        -0.46158491398189   -0.23510342165339   -1.62988021462633
H        -0.09222294706031   -1.55560540608190   -1.33968660699914
H        -1.72245876734986   -0.63524089225831   -2.05388089479317
C         0.39109814137381   -0.10450508419884   -3.22993807893879
C         1.77307039804136   -0.34489093591747   -3.25458331290638
C         2.43134794884833   -0.35517023665285   -4.47572883453727
H         3.48469820765949   -0.57384455972719   -4.47110205828379
C         1.78747538224590   -0.09575879370450   -5.68605941054364
C         0.43885407854689    0.22937363021467   -5.60924883781035
H        -0.10536234490169    0.48281806506085   -6.50029627132368
C        -0.26784186518110    0.25103847644927   -4.41218103210770
C         2.51697228666062   -0.60729159561144   -1.98492497438860
H         1.80766837384722   -0.44890117909487   -1.16045091539211
C         2.53738375266067   -0.21886168943532   -6.99442966464654
C        -1.71112236134020    0.63735134435754   -4.40669157373290
H        -1.97171108959841    0.86411571730542   -3.36769459184191
Si        3.81996065566943    0.76291949544871   -1.57976171629471
Si        3.01718159194314   -2.45712859095536   -1.82919196981013
Si        4.22075332648261    0.75262641353091   -6.80875052701092
Si        2.69583794686354   -2.14483544270608   -7.24746921279515
Si        1.58633812573725    0.53227324567257   -8.52442781355517
Si       -2.05423412847117    2.33120037789135   -5.27052671211186
Si       -2.80859750482797   -0.88759656529449   -4.85681097295092
C         2.92405616185034    2.42749210093989   -1.76332015018334
H         3.54014871265717    3.26324126776171   -1.44573972895405
H         2.02032231243137    2.42839201775870   -1.14753874109255
H         2.61502491323323    2.61769852575102   -2.78646854284636
C         4.28345445622735    0.53674115412061    0.26028516805404
H         4.77567683716726   -0.41223377564646    0.44763093059869
H         3.39588230526687    0.58460370173274    0.88440190258270
H         4.95484150376637    1.32380487174605    0.58883573754444
C         5.43633818362879    0.75773135205583   -2.58732220458100
H         5.95825232680151   -0.18982561897202   -2.52641357108022
H         6.10381100439519    1.51987115156077   -2.19677073667994
H         5.26405330620978    0.98178869081280   -3.63196279230042
C         2.81775982435791   -2.99160772473542   -0.00529478268297
H         1.80111667483001   -2.83670773723756    0.34510240821350
H         3.47688553045050   -2.42829730963396    0.64693075175681
H         3.05108513021161   -4.04408898442941    0.12399212239154
C         1.83414751063093   -3.53018213261414   -2.88101142853161
H         0.87141693473779   -3.64655879978203   -2.39117389337940
H         2.23658291723860   -4.52576862398370   -3.04243891584363
H         1.65105040603207   -3.08770932270667   -3.85502055643148
C         4.82753597756168   -2.81397282950092   -2.31340667574923
H         5.09871996332179   -2.38614163191430   -3.27155642407902
H         4.99805105943923   -3.88435689209245   -2.37682636598044
H         5.51223275014371   -2.41929359147741   -1.56987790237617
C         5.69986041363251   -0.25971013909704   -6.12998452143106
H         5.48345698625499   -0.83360624254859   -5.23843193476088
H         6.52086497118097    0.41075961426966   -5.89149398573088
H         6.06293066129508   -0.94985726693972   -6.88519465100344
C         3.89799366677895    2.28521206408065   -5.71182891037871
H         3.35617118696802    2.03451579776957   -4.80762689419997
H         3.31027059813974    3.02303186024701   -6.24757047017095
H         4.82713690640999    2.76514697093890   -5.41863356096677
C         5.00674295569896    1.48062565553397   -8.39116266541179
H         4.34637834888556    2.15528136686900   -8.91942481341266
H         5.32870311198226    0.71463995941658   -9.08672277283913
H         5.89076174341867    2.04679741398859   -8.11201136997661
C         3.86000282860700   -3.09052160680077   -6.06285176042232
H         3.69106831929733   -2.83669535919625   -5.02458419655083
H         4.90537433207796   -2.91939464508613   -6.28918125545233
H         3.68306954629045   -4.15795593234686   -6.16412414120516
C         0.97641970156029   -2.94157994238938   -6.97511451251754
H         0.39877953093377   -2.38826229060229   -6.24167370592407
H         1.07214964473848   -3.96096356516869   -6.61334903558976
H         0.39650877268114   -2.97906251469498   -7.88994168981837
C         3.32336481394171   -2.61030656829316   -8.98812309046180
H         3.46384261899716   -3.68470858039490   -9.05180993805815
H         4.27944239214330   -2.14721619208997   -9.20673219623815
H         2.62867840445661   -2.32558559282094   -9.76823577243855
C         2.55241942634124    0.47766189348259  -10.18066582626998
H         3.48923301841485   -0.05650995129064  -10.11353331280512
H         2.77302201209005    1.47780027002599  -10.53751450804520
H         1.95782982170501   -0.00654510767966  -10.94893354635313
C         1.19915683481014    2.38072485993070   -8.22361747926337
H         2.08105123640181    2.99195710073716   -8.38574093154553
H         0.84809969969109    2.57276433499226   -7.21806758220562
H         0.43530470493784    2.73241666380772   -8.91099658013837
C        -0.02654471368088   -0.37051143494174   -9.03335442603874
H        -0.59406217048563    0.25324030407747   -9.71941941906963
H        -0.67678670556162   -0.62310143404402   -8.20761898991655
H         0.20217394398765   -1.29197897210221   -9.55930919118383
C        -0.55997153482462    3.50003621610095   -5.03616914421740
H         0.37151093507468    2.94899005476042   -4.94637918363626
H        -0.67106421679710    4.09446513770410   -4.13513854931878
H        -0.46025071089512    4.19015191551665   -5.86871350300715
C        -3.55821034761380    3.09449910412712   -4.37486236281324
H        -4.44347397053152    2.47527390609239   -4.47200329836104
H        -3.79728408195396    4.07198727574315   -4.78193410432800
H        -3.36288251964502    3.22277158788790   -3.31505211007726
C        -2.49177828399316    2.24904836013839   -7.12761826724785
H        -3.47153412382774    1.80856938828844   -7.28192035577018
H        -1.77186169627530    1.68606559669796   -7.71024857786906
H        -2.52452007769841    3.25380624809671   -7.53861210562884
C        -4.57353248906956   -0.55807163348104   -4.20553075754852
H        -4.56892338659139   -0.14926694132177   -3.20045770532803
H        -5.15409481757558   -1.47529570540730   -4.18452707948789
H        -5.10158799028407    0.14337576266602   -4.84290598568299
C        -2.92484350314424   -1.31710955895620   -6.71039222347152
H        -2.03782145744615   -1.84275132699963   -7.04804253129991
H        -3.06316476690015   -0.44757645625546   -7.34012544006809
H        -3.77104962334974   -1.97729577979879   -6.87750928400149
C        -2.12227281341854   -2.47345311656305   -4.02897973250757
H        -2.52945460328786   -2.63185109336940   -3.03522041163115
H        -1.04052777390885   -2.43247215603705   -3.93758802280884
H        -2.36385210974690   -3.35288369496623   -4.61923045856647
C         0.62701900244363    2.87034456413126    1.33129985637670
H         0.23983955681193    2.66527156954274    2.33290524799007
H         0.35773302598637    3.89897567792316    1.08643881744980
H         1.72171632806288    2.83245541807236    1.39833823282502
P         0.46175698894232   -0.23505525794493    1.62998465711133
H         0.09231091902287   -1.55547394229657    1.33946849574553
H         1.72262157197473   -0.63540012443947    2.05394899730351
C        -0.39105087387822   -0.10443304021185    3.22999207562008
C        -1.77302563800506   -0.34481117675196    3.25457681446794
C        -2.43129732279899   -0.35527218512488    4.47572353648046
H        -3.48463174543403   -0.57401476748530    4.47106790420453
C        -1.78743251518756   -0.09605247837240    5.68609559025190
C        -0.43884467379570    0.22927402567135    5.60932519386870
H         0.10532695723920    0.48275844615777    6.50039298287472
C         0.26783697579575    0.25113227615187    4.41225996055441
C        -2.51684603523103   -0.60740962860469    1.98491706547263
H        -1.80754087696979   -0.44906530117737    1.16043215046423
C        -2.53749827653422   -0.21886095565047    6.99439099368303
C         1.71114442211378    0.63731867204400    4.40674508298229
H         1.97168667478031    0.86404231385487    3.36772714231793
Si       -3.81983944612238    0.76278328460418    1.57977446830867
Si       -3.01721515317363   -2.45721793520841    1.82913191390991
Si       -4.22086445881484    0.75264037001414    6.80865806837693
Si       -2.69603594077866   -2.14481190232480    7.24744299706724
Si       -1.58634044968815    0.53225345442501    8.52433468677112
Si        2.05425064254717    2.33119786714951    5.27048501109171
Si        2.80871838589810   -0.88758247439355    4.85688672924976
C        -2.92398835353270    2.42738283047443    1.76324080548641
H        -3.54011800474771    3.26313856367627    1.44574513892641
H        -2.02032676145821    2.42829003999275    1.14735115796339
H        -2.61485562157359    2.61754424239035    2.78636595637122
C        -4.28348172008506    0.53651575455200   -0.26022165274797
H        -4.77587632621391   -0.41239089343898   -0.44746140367746
H        -3.39596949853153    0.58418738450502   -0.88443662038991
H        -4.95476918062455    1.32365019149275   -0.58880106831423
C        -5.43614728702126    0.75781023384193    2.58742548867207
H        -5.95823394843774   -0.18964726965478    2.52647022465711
H        -6.10351072830393    1.52013302602560    2.19703482599688
H        -5.26365694316969    0.98172009343509    3.63206007169154
C        -2.81770742413262   -2.99163032386022    0.00522305472120
H        -1.80105506336818   -2.83666796972341   -0.34513022815752
H        -3.47684734083134   -2.42829357121975   -0.64696470113922
H        -3.05100163027503   -4.04411435976336   -0.12411611187663
C        -1.83433882989159   -3.53038309991916    2.88099712095432
H        -0.87160748164545   -3.64687454409941    2.39119130081631
H        -2.23689080558200   -4.52592464447591    3.04240932275236
H        -1.65122833727755   -3.08794125657977    3.85501823816673
C        -4.82760492735361   -2.81398427481796    2.31328210441491
H        -5.09872081495636   -2.38639669173717    3.27156095453409
H        -4.99827090504787   -3.88436452282545    2.37638410185682
H        -5.51224905189776   -2.41898821348292    1.56987875442114
C        -5.69985795946264   -0.25975817857441    6.12976174923238
H        -5.48335362554400   -0.83367838180423    5.23824969151857
H        -6.52082053181294    0.41073150074118    5.89119215691920
H        -6.06296427613457   -0.94989646266565    6.88496324134808
C        -3.89781642786035    2.28523772907685    5.71184390232542
H        -3.35480372115096    2.03479589661550    4.80827213226083
H        -3.31126006397896    3.02357860623573    6.24815656964321
H        -4.82699455544569    2.76442476134942    5.41756472835757
C        -5.00695265242367    1.48048072170414    8.39108819083868
H        -4.34657120538942    2.15504890652860    8.91943828923885
H        -5.32894971734620    0.71441006280856    9.08654284269240
H        -5.89091399289279    2.04672896830433    8.11190486194146
C        -3.86024810654619   -3.09056044834248    6.06287953096483
H        -3.69143960699772   -2.83670184552415    5.02459652590934
H        -4.90562932793190   -2.91959890866065    6.28932633828609
H        -3.68314120823256   -4.15796858896350    6.16413119109655
C        -0.97663880071692   -2.94172704374401    6.97531177943124
H        -0.39890997811156   -2.38844025674575    6.24192640755614
H        -1.07242845099443   -3.96107153365401    6.61345837608263
H        -0.39673261567489   -2.97935464236509    7.89014289520339
C        -3.32364387109854   -2.61013715503243    8.98811180560379
H        -3.46419455702845   -3.68452025450324    9.05183896984380
H        -4.27975923010413   -2.14707679670334    9.20660527904571
H        -2.62910161862434   -2.32545114607809    9.76837114998479
C        -2.55235740083488    0.47780857909606   10.18061561115256
H        -3.48891937920533   -0.05680693388436   10.11358999054287
H        -2.77346904605377    1.47791235432381   10.53722969019566
H        -1.95761043465547   -0.00591811133564   10.94907311100664
C        -1.19904668287612    2.38070836517811    8.22349518310039
H        -2.08116291652559    2.99177453501614    8.38523005628674
H        -0.84733461624268    2.57276597481013    7.21814722518311
H        -0.43567175541492    2.73232918656212    8.91147545484566
C         0.02637120656507   -0.37067784376238    9.03345203236521
H         0.59391276893680    0.25319721254231    9.71939466384035
H         0.67644259247051   -0.62319053012873    8.20757574470509
H        -0.20226169944843   -1.29218491758862    9.55940261330674
C         0.55996739728302    3.50007496676308    5.03641425233053
H        -0.37155111652184    2.94905367509189    4.94689079498276
H         0.67083205666700    4.09449773307259    4.13534993893959
H         0.46045474550616    4.19019248044289    5.86898165858932
C         3.55804823039097    3.09443467989105    4.37447629756824
H         4.44342194720795    2.47538098733230    4.47173227666838
H         3.79702055466750    4.07207965754101    4.78122386028896
H         3.36263770089582    3.22237476451434    3.31464016317113
C         2.49218667182038    2.24909583316855    7.12748260163457
H         3.47208814215673    1.80885761627168    7.28158523861636
H         1.77249664011547    1.68592399854030    7.71021537023752
H         2.52473871843010    3.25386974374939    7.53845463682055
C         4.57359678810082   -0.55812683635830    4.20540497600085
H         4.56885804334151   -0.14912764698683    3.20041151990011
H         5.15406235647214   -1.47541205294187    4.18415129182033
H         5.10179026370866    0.14315443676047    4.84285163248262
C         2.92518943314819   -1.31687744610392    6.71049815728689
H         2.03820634594590   -1.84246250230424    7.04834130122770
H         3.06361046803928   -0.44725365214817    7.34007938206824
H         3.77141109815810   -1.97704840974328    6.87759814870960
C         2.12231846054297   -2.47353517642342    4.02931310401469
H         2.52949858379139   -2.63204402762282    3.03557056036913
H         1.04057424010161   -2.43250827237767    3.93791840544416
H         2.36386570756337   -3.35290647837664    4.61967240668770

