88
CSD_code = LOMVEP | q = 1 | S = 0 | Stoichiometry = C29H55IrNP2(1+) | MND = 5
Ir        5.31536764535825    3.66309118876196    6.21803345432110
P         3.03761537822272    3.75249823451100    6.51926783728579
P         7.57021399675051    4.11555348083038    6.23145706945892
N         5.23395404447245    5.51497510838144    7.27261474633052
C         5.96158248506050    2.10004556728192    4.85165664222828
H         6.92523233130957    1.66322375636474    5.08333255704831
H         5.86544902654695    2.40879326028895    3.81732084453351
C         4.82929087230730    1.65549697297006    5.53648941754348
H         4.94492203079710    0.92260503462072    6.32629170468745
H         3.88846092006854    1.57295035585632    5.00629467950131
C         4.05506737241471    6.10179483994489    7.57498875178439
C         3.97553498412304    7.31205823009368    8.25079245602721
H         3.00463082720434    7.72865145933195    8.46537049715527
C         5.12789632507147    7.97172724187599    8.63249972313134
H         5.08720131822196    8.91450028896609    9.15273209071890
C         6.33458121431496    7.37467611234516    8.32192913578795
H         7.26720470534561    7.84025780679871    8.59706447945032
C         6.35977666315102    6.15727657126446    7.65485395977888
C         2.76820767712671    5.47002502521763    7.15198241664123
H         2.34065149056973    6.07533945810281    6.35050245197124
H         2.05207748817066    5.48030434083155    7.97645706104004
C         7.69846579484659    5.54335902446734    7.40055154025981
H         8.08854071188041    5.17864992453640    8.35282431058597
H         8.40011873772283    6.29584092583930    7.03418195493801
C         2.21774538280598    2.69583354930363    7.80116458278329
H         1.20764400046309    3.09727614764831    7.94023381829576
H         2.11496970772023    1.71252607944210    7.33015325832344
C         2.87269889821328    2.48807337309871    9.17813533122993
C         1.96099432183390    1.54971116745547    9.97778658509792
H         2.39467201482971    1.34457728816681   10.95304857475980
H         1.82829250692821    0.60259942389302    9.46012634336350
H         0.98147281848119    1.99709100222374   10.13034670605703
C         3.02182132579175    3.80113506471949    9.94583070919127
H         2.07007384598170    4.32196581177506   10.02484279503168
H         3.74940048561649    4.45192868206681    9.46606693081000
H         3.37189205878776    3.59813943210213   10.95526795107122
C         4.24845147380171    1.84596262180817    9.02805473415688
H         4.89005946562496    2.47824449298086    8.41026839306626
H         4.16790474283552    0.86530286175573    8.56687684381076
H         4.71821025381621    1.72684545231462   10.00088314201355
C         1.67325181327620    3.63430578519695    5.26829293768775
H         1.41576693793742    2.57342534193590    5.19369879440055
H         0.81586385548070    4.14140465584256    5.72595527472380
C         1.87391788763594    4.17548314032743    3.84103580850814
C         2.87133191943592    3.30895569159441    3.07626333699027
H         2.95500186315042    3.65288053606288    2.04856163071364
H         2.55312537930782    2.26929474699671    3.05695602554241
H         3.85073344794687    3.37821549081309    3.53929493019717
C         0.51448193097813    4.12190714319326    3.13472784949350
H        -0.21450249924495    4.75127995314698    3.64099655080723
H         0.13123189337398    3.10420418365620    3.11071915387769
H         0.60934562291101    4.47231501465096    2.11031805839352
C         2.38483621255735    5.61537285307816    3.83958332311075
H         3.34335249924840    5.68057035987897    4.35256238676769
H         1.66938997760092    6.28826857101998    4.30836437959655
H         2.52899771158535    5.95199099178264    2.81586848012650
C         8.98851021349870    3.07107065895231    6.81250052804435
H         9.31954460429256    2.49327576600851    5.94414834274038
H         9.79053773800032    3.77893357587382    7.05205565742197
C         8.81068048841830    2.09659964333521    7.99083823861824
C         7.89715327330307    0.93953165507843    7.59482950676866
H         8.27968489341934    0.42024003139734    6.71937215582473
H         6.89917431682022    1.31221848088157    7.38588167966162
H         7.82956602340187    0.22110446197451    8.40765817103801
C         8.21548526297939    2.78362095079241    9.21865238270454
H         8.10015134291568    2.06108837120879   10.02298866939932
H         7.23128413946176    3.18978807482334    8.98877641024644
H         8.86678556319165    3.57677642459303    9.58099638853750
C        10.19696448186164    1.54619499915253    8.34357554871653
H        10.86715273710293    2.34454343611925    8.65480986775677
H        10.64055209038654    1.03969216847290    7.48965646182518
H        10.12112656661653    0.83173107030431    9.15899920427893
C         8.40592107967378    4.74129073836981    4.70100972098057
H         9.38596060738402    5.12112308342315    5.01081365670805
H         8.58099808092009    3.84692552762156    4.09367840773720
C         7.71997525840775    5.78748957797101    3.80480478718805
C         8.64985107027370    6.04367809983136    2.61274413948246
H         8.83914281005814    5.12463402249952    2.06303011553678
H         9.60373497723973    6.44744455218782    2.94434720727113
H         8.19838561333796    6.75924965439680    1.93053132996969
C         6.38067633723826    5.26499837892078    3.29414502528303
H         5.73138457311491    5.01400703320784    4.13599291194218
H         6.52140484953765    4.37964871957359    2.67998778317520
H         5.88463143245378    6.02148749066674    2.69171314580006
C         7.48892138034708    7.10755473033101    4.53969090502773
H         7.12669056975178    7.85804033529942    3.84094476399813
H         8.41197776192141    7.48159575630473    4.97723635642562
H         6.74141606487889    6.99304141101986    5.32121512770505

