99
CSD_code = LOMVIT | q = 1 | S = 0 | Stoichiometry = C35H59IrNOP2(1+) | MND = 6
Ir        2.50453951581243    0.63093719132130    9.27879904047347
H         1.34581870497422    1.05753999198077    8.40248621746122
N         4.07427608896245    1.75955275189202    8.31670464367105
C         4.52855198302201    1.40857050805639    7.10879832704158
C         5.62451918743919    2.04050477324082    6.53925316721179
H         5.96060790020094    1.76228810253097    5.55309687718606
C         6.27371189125944    3.03719455278376    7.25061223008227
H         7.12676288047589    3.54455030929581    6.82882688716275
C         5.81617084082662    3.36095532343917    8.51496485499864
H         6.30869290661731    4.11685354803729    9.10588838892868
C         4.70383861478173    2.69806036357421    9.02394396843683
C         3.79198915581701    0.31520774706218    6.39938145654429
H         4.39923342520714   -0.13667725669389    5.61567112397343
H         2.89452022692262    0.74512950704596    5.94383340200272
P         3.17807395953716   -0.88681461427303    7.67874930347332
C         4.63346013839113   -1.84124225150843    8.30529679125803
H         5.06921215668575   -1.20972144876699    9.08471285450496
H         4.15154937051080   -2.68073270348370    8.82388831861258
C         5.80915186499483   -2.38111970441193    7.46041317962861
C         6.52612474140397   -3.41933237456877    8.33486872873313
H         5.86657363430211   -4.25081416517130    8.57432409957557
H         6.86831005196244   -2.97183899677006    9.26555890255930
H         7.39244842754280   -3.81676840996863    7.81221635147870
C         5.37119337340048   -3.05764518470854    6.16300196534934
H         6.24938778066966   -3.38191476589989    5.60881097138113
H         4.80511260240323   -2.37958969758447    5.52873574615132
H         4.76982312030114   -3.94034868437544    6.36987772046603
C         6.80421087165712   -1.26224301923888    7.14212823168540
H         7.07942541160034   -0.71743590936927    8.04328753827748
H         6.40031980333507   -0.55562519226064    6.42507410464812
H         7.71149792277739   -1.68552693090742    6.71747888664961
C         2.14961547711420   -2.22611591309853    6.92714900570186
H         2.82957717990412   -3.00567501773755    6.58209369351194
H         1.62874479635974   -2.61779286912695    7.81087099861742
C         1.10179203925042   -1.96973881355365    5.83124303283450
C         0.22949290597475   -3.22891446998511    5.75015845066847
H        -0.51144775014177   -3.12117194854292    4.96274095996745
H        -0.29419099861433   -3.39698211605990    6.68805911824235
H         0.83197028951595   -4.10687859638016    5.52873730977613
C         1.77064839188645   -1.76153166123201    4.47183413972200
H         2.37251733488133   -0.85860785834343    4.45371434534626
H         1.01198518028091   -1.67154459963634    3.69854723476216
H         2.40442742884830   -2.60915673196634    4.22025393499725
C         0.21463011080831   -0.77913080851761    6.17752853402006
H         0.79011966308608    0.14085634332667    6.23231187221879
H        -0.26068951939899   -0.93444043113482    7.14119639970644
H        -0.55913535287503   -0.65762541220157    5.42391791467448
C         4.20785925083672    2.97513292320326   10.40588468731845
H         4.41503856120916    4.00418029030504   10.70758930413848
H         4.74848936757555    2.30714498633694   11.08621826454720
P         2.41362852477290    2.54026811550399   10.61561227443344
C         2.43691729328473    2.43736441835074   12.46451151252315
H         3.04449588102483    1.54816537312031   12.66344819535083
H         3.00608904585378    3.30193624731785   12.82524365413990
C         1.13033148065201    2.31586880020526   13.27372228360152
C         1.47851564501012    1.63968868973872   14.60667745854525
H         0.59015149349472    1.55022345054649   15.22605057988964
H         2.21736863041827    2.22057681223703   15.15445152048096
H         1.87468022276072    0.63946011109212   14.44209753020232
C         0.10351405831492    1.45862862882476   12.53829879364978
H        -0.05522045032824    1.81869465588087   11.52208548278968
H        -0.84692237880686    1.47545066135387   13.06551990734133
H         0.43936954876204    0.42788649188036   12.47857645341768
C         0.53412652017444    3.69146713042824   13.58437405995610
H         0.13072485843109    4.16653533159202   12.69662506062337
H         1.28014773875961    4.34868268565668   14.02620243781417
H        -0.27793147048320    3.58371951015316   14.29922325437796
C         1.50782673263515    4.13030338316026   10.34997455676999
H         0.46789941364818    3.86715512075175   10.56403936684063
H         1.85496295219466    4.79643399410906   11.14742953400604
C         1.51016287576367    4.91106630565136    9.02346551468235
C         1.16304888426312    4.00722094637042    7.84538680230484
H         1.05279796625821    4.59859769191642    6.93974407749600
H         0.23172427666836    3.47774172151906    8.02826964804997
H         1.94787357768057    3.27200698175951    7.68437628506343
C         2.85445950662589    5.59285814131980    8.76767361241082
H         3.62518659387711    4.86609955598793    8.52829421684261
H         3.16864003424274    6.17529750286819    9.63132580503672
H         2.76725530537158    6.27108904714045    7.92217065795837
C         0.43441131943355    5.99712361036262    9.15755027092817
H         0.40384824877030    6.60900586173178    8.25991959089827
H         0.64259040508713    6.64861534254645   10.00336783235610
H        -0.54865128951452    5.55398154897226    9.29698771116129
C         1.38340231455453   -0.70027548080119   10.31902739359169
C         0.05293608673099   -1.08924447200769   10.15326867920457
H        -0.55117740934783   -0.59740264380080    9.40676470036804
C        -0.51962874545199   -2.07389303876445   10.93641774644366
H        -1.55267342242847   -2.34809195546480   10.78282237759745
C         0.22043535865359   -2.71436859919991   11.92571270756269
H        -0.23448966401941   -3.48158172543955   12.53265296619194
C         1.53287171713884   -2.35926396910653   12.12728696992672
H         2.10902708313615   -2.85135301356532   12.89597172213190
C         2.12407217017607   -1.36353295648156   11.33460842535653
C         3.49707602795026   -0.94508189018923   11.50913607731820
C         4.35571297619955   -1.53536164111045   12.58912324954118
H         5.33967430626505   -1.07059938574669   12.57627992820557
H         4.46751657453973   -2.60694992017413   12.43363966256258
H         3.89989360628694   -1.38207347935927   13.56555050666912
O         3.98147466405237   -0.08210035522104   10.76050746502791

