52
CSD_code = LOMWUG | q = 1 | S = 0 | Stoichiometry = C17H30ClN2RuSi(1+) | MND = 9
Ru        4.79167740048640    2.53492761884727    5.26315731039425
Cl        2.81765466077042    1.26101216303921    5.32028052135687
Si        7.67547112787089    1.65917135698931    2.91576613098055
N         3.47044390548372    4.03149456636461    6.07618718812881
N         3.80632649917707    3.23967881844154    2.45052600473243
C         4.05894651579219    5.30055541485669    6.53437078488560
C         5.01188893568269    5.11856659552153    7.71724189688733
C         6.41148750317500    4.61859458174953    7.32570025621145
C         6.38817696117057    3.29101673978600    6.62260714210027
C         6.97365038610590    3.13026292369316    5.34986600287006
C         6.89925287938799    1.89504689108684    4.65596582372994
C         6.26317422968650    0.80815158542021    5.29573451150377
C         5.79607960694725    0.92131970661469    6.62815821631447
C         5.83867474600847    2.14878117027854    7.27777553029822
C         9.41942154309074    0.96964252606589    3.22795397047516
C         6.52601348940315    0.44741894625587    2.00232023247506
C         7.70112292176882    3.37604686739428    2.08858796682604
C         4.21444745180626    3.02219641096153    3.51701382163251
C         3.21676839967107    3.43326329443729    1.18028255033738
C         4.10353822627559    2.75398492333728    0.13527793087096
C         3.12617973184910    4.93959868485515    0.92609245270642
C         1.82733892002308    2.79268070595438    1.22237535729112
H         2.70857869168606    4.22571051331886    5.41730284561936
H         3.02484257645006    3.55256011124432    6.86865904297891
H         4.58285923152068    5.75953303981050    5.68938434449449
H         3.25510455041923    5.97830370357421    6.84520957941611
H         5.13206012378828    6.08441109910078    8.20886960811741
H         4.55546592641777    4.44172818560589    8.44337621961601
H         6.88969127727073    5.36387077308557    6.68617426265412
H         7.00956886422544    4.52787229058015    8.23684360855438
H         7.51551067008218    3.95728762379459    4.90500469856567
H         6.23823850573733   -0.15950541770761    4.80757960534543
H         5.41376166101798    0.04691022901894    7.14217455909093
H         5.51966761851803    2.22576333694511    8.31133080517498
H        10.03203008374591    1.65263913140074    3.81003508352578
H         9.92699666600143    0.80298618354827    2.28373553292522
H         9.39343592692662    0.01983746138533    3.75488712665890
H         6.77295808887892   -0.58486603654854    2.23343819511634
H         6.61498805981037    0.55853375264953    0.92657212696674
H         5.48341200893040    0.60646601769660    2.27153729422787
H         6.75741215683459    3.90161982352286    2.21333644278883
H         7.89125091272073    3.28006451757918    1.02456958375273
H         8.48988379171887    4.00455630750201    2.49194590632656
H         5.11188051912187    3.15864212711865    0.16493568918064
H         3.68856215107030    2.92312639495947   -0.85389014850509
H         4.14941502641224    1.68337764564889    0.31367594173970
H         2.52591390657246    5.42316888869331    1.69304515983045
H         2.66032964556704    5.11647245102600   -0.03860612037978
H         4.11619869466320    5.38915063578459    0.92039158727688
H         1.90211924848936    1.73940425984651    1.48071775784816
H         1.35491572410387    2.88229918944058    0.24870906164989
H         1.19991164995486    3.28296326777905    1.96261299653883

