41
CSD_code = LOMWIU | q = 0 | S = 0 | Stoichiometry = C14H23Cl2NRu | MND = 9
Ru        4.19489100352509    2.46774419405899    1.31716243307463
Cl        5.01819092608817    1.89697851156394    3.44694543770394
Cl        5.31874327889018    0.62581131576496    0.37484707750640
N         2.75157532449868    0.93485672303597    1.80835835897385
C         1.34182779245107    1.18024423371365    1.50838566819297
C         1.15274097489003    1.67079346336067    0.06921011819151
C         1.31368662872843    3.19279569064142   -0.09227746225395
C         2.69815994298883    3.66705071102253    0.28410824967173
C         3.76760576605717    3.47284907776061   -0.63746221951869
C         5.10048551119900    3.83599397779958   -0.26447618416107
C         5.36101668968937    4.34724830924702    1.03142214967976
C         4.26262139617106    4.69517393047329    1.88795508002124
C         2.94098882299625    4.34298723208910    1.53520080906263
C         3.56594961010284    2.89132136949799   -2.01117067379824
C         6.21856739117668    3.64234798806367   -1.24934013445268
C         6.77309052868201    4.60278615909109    1.49120704144202
C         4.54360659117143    5.41110178365780    3.17801927365334
C         1.83791539130786    4.72524732298150    2.49050595635083
H         3.08827765939200    0.11418420375277    1.28661671902733
H         2.88579191735510    0.72851138420192    2.80611218751278
H         0.76795724281394    0.25364091307816    1.64348176961086
H         0.95784789070855    1.91880292838594    2.21691401573223
H         1.87896580193314    1.15163650623770   -0.56033810556430
H         0.15199202256856    1.39794560230204   -0.27087569241656
H         1.10589215878448    3.46073697471591   -1.13020963612920
H         0.55157942573655    3.68832746586239    0.50695495209861
H         4.20871416647208    2.01952286487534   -2.13183503721793
H         3.83547314801586    3.62484610055884   -2.77251871324096
H         2.54403102673348    2.58229802823760   -2.19575331886850
H         7.06536241038974    4.28172128117174   -1.01844822861075
H         5.88742869988616    3.87111930655774   -2.25898575176452
H         6.54977663139706    2.60218747026285   -1.23203006448238
H         6.85107116404107    4.44800915348381    2.56450108844398
H         7.08518243935898    5.62273563147386    1.25660854944127
H         7.46069514941444    3.90625640827993    1.01896274332492
H         3.70350797320970    6.02710564247537    3.48441025727323
H         5.41575790190284    6.05206123439830    3.08109179242165
H         4.73977316640047    4.67862377520465    3.96424142003233
H         0.87906530353854    4.28919106029293    2.23290376485978
H         1.71521438168516    5.81010013429809    2.49914552603472
H         2.08897874764088    4.39940393607210    3.49844878314017

