55
CSD_code = LOMWUH | q = 0 | S = 0 | Stoichiometry = C26H26Cl2Ti | MND = 12
Ti        5.72885173386084    4.71345796729422    2.24597618141614
Cl        6.53920721200738    3.12333817110696    3.51829628801035
Cl        4.85666902903891    3.29957336429021    0.81654795153176
C         5.89009595706130    8.92814614178973    2.56108231619193
C         5.81438864453204    7.60775720271608    2.43690741615372
C         6.74879604055326    6.67556408538005    1.75402027637186
C         6.45994964356247    6.05321480867862    0.51453383912038
H         5.82052922251996    6.45838097011593   -0.26133999783732
C         7.37389920162373    4.96660950601720    0.34657565754038
C         7.60234704742243    4.07665974527203   -0.71412879379381
H         7.03337116919529    4.16321189296449   -1.62935035703073
C         8.55408121425765    3.09855660225481   -0.55762864746692
H         8.74005965250397    2.39954441799399   -1.35949031999866
C         9.30272635517560    2.98718175552931    0.62599959876664
H        10.04382084893567    2.20535755559443    0.70185161196671
C         9.11613174212212    3.85248224214342    1.67639501088025
H         9.70092392463452    3.76786036792261    2.58186621941603
C         8.14024689681430    4.85405804620280    1.55575266748195
C         7.69127878835783    5.87714448665902    2.44919179898650
H         8.15077259491867    6.12365705887014    3.39968819184920
C         4.81063555213750    6.65343454230943    2.97516514809705
C         5.04711269470610    5.86802592411483    4.12957209006594
H         5.69742575954258    6.13967100938994    4.95326548452816
C         4.07791637100346    4.81697952486702    4.15202106868372
C         3.78890683470946    3.81412405741951    5.09016547477712
H         4.35014933534223    3.75329466038003    6.01220545244753
C         2.78770896484284    2.91755014973711    4.80603272867973
H         2.55439799807565    2.13455526151651    5.51217888037754
C         2.04789023447696    2.99804249535426    3.61429212653129
H         1.26496780603358    2.27560969847901    3.43729468149607
C         2.29555675935637    3.97579153300330    2.68185307933697
H         1.71848284319910    4.03893671692190    1.76970874440569
C         3.32401684665705    4.89748882319819    2.93264058712369
C         3.84121842805922    5.99546973717154    2.17537497357765
H         3.40636560701600    6.38007796673924    1.26056084874339
C         7.05555721093164    9.68380605712835    1.98868223655279
H         6.73146883348494   10.66538166017063    1.63932311078815
H         7.46898430899890    9.13263373205444    1.14099043910066
C         8.15734854177088    9.86674046977736    3.03967170817705
H         7.75752879766769   10.41413371776680    3.89588210860761
H         8.47684581795289    8.88375592119043    3.39178661501133
C         9.35341603079907   10.61779712454197    2.47026084043026
H        10.12322392134690   10.73882136063944    3.22873739973647
H         9.05615457587237   11.60501893534309    2.12277812778781
H         9.78041916380266   10.07306060154764    1.63109483386064
C         4.83875317821702    9.70645196916148    3.29864681930138
H         5.32457306180905   10.42287120934808    3.96483434120971
H         4.24067967791102    9.02108794719528    3.90344390073785
C         3.90701155840700   10.47094337941324    2.34868763484522
H         3.20556678722040   11.05478994003987    2.94794399644979
H         4.48875954247341   11.17086657769363    1.74566418218999
C         3.13238929912053    9.53433715494630    1.43190460343652
H         2.45939713309240   10.09926822745144    0.79115146612263
H         2.54349895309196    8.83268053238430    2.01845688985234
H         3.81682465177417    8.97084499280768    0.80148046737457

