38
CSD_code = LOMXIV | q = 0 | S = 0 | Stoichiometry = C13H21Cl2NRu | MND = 9
Ru        4.82356522501443    4.58416044087020    7.17548773585079
Cl        3.91690974291351    2.43222501873696    7.02536115796575
Cl        2.73114066219537    5.51025203464133    6.67367830002042
N         5.05789871743466    4.40783174113507    5.04734464411805
C         6.49430760171935    4.24149202528588    4.79766591088001
C         7.29743519966535    5.28425005706131    5.60204894208855
C         6.78652808176436    5.29909356116285    7.03314454209477
C         6.93517166961562    4.11940944818955    7.83846790474195
C         6.12025967142345    3.97041272809625    8.98686279431377
C         5.16983461882169    4.98268283931665    9.33049096853788
C         5.24575751296864    6.25775897491821    8.68266744651615
C         6.06752174106240    6.43523156273926    7.54115914748502
C         7.93403783602485    3.04377750944665    7.50148586523572
C         6.19665019300971    2.71490393376277    9.80577044285501
C         4.20886741963236    4.76762206938703   10.47156753499217
C         4.38350446892475    7.38047655019861    9.18140264002207
C         6.16064899886231    7.79899516450988    6.90706368285223
H         4.52844166781915    3.60657812065668    4.68960238765660
H         4.68812599817683    5.25127531002486    4.59994448209774
H         6.75984837455688    3.23092157202372    5.11772270144095
H         6.72890423965478    4.34119314502811    3.72916698279400
H         8.36315383657128    5.05423866887590    5.54632126861473
H         7.14691218104375    6.25621694222276    5.13383640971056
H         8.61889377388514    2.90324146081739    8.33950665268726
H         8.53225226347203    3.29618439532277    6.63195440156754
H         7.42925853517627    2.09602058760314    7.31601590703525
H         5.95025593752950    2.91136820240462   10.84600630372092
H         7.18844506878269    2.27401227500094    9.76587901950811
H         5.48751300656234    1.98436762918898    9.40966400253272
H         3.29659955913557    5.33577530469625   10.30936583485617
H         4.65187216195069    5.07529205877909   11.42165301043185
H         3.92799651432920    3.71976648082906   10.53787992058275
H         4.78993353493522    8.35162910967106    8.91763716060630
H         4.27271317496377    7.33608248874059   10.26195780593899
H         3.39525113477203    7.29735041874125    8.72272161693047
H         6.94241470331312    7.85178096957533    6.15490468155270
H         6.40179298676648    8.54213142893097    7.66743005902396
H         5.21148198557256    8.07759777143136    6.44925973014006

