71
CSD_code = LOMXER | q = 1 | S = 0 | Stoichiometry = C30H36ClNPRuSi(1+) | MND = 9
Ru        6.73651388288040    4.79973383404675   -0.71538598126340
Cl        7.73991883980872    5.88398280018271   -2.54255511301635
P         8.83014920474437    4.40478267338833    0.18102458280323
Si        6.58171455923432    1.10360461019262   -2.31941779677620
N         6.83893388433159    6.82781160103128    0.06926338356412
C         5.58333159432454    7.58131080668763    0.19662004481508
C         4.60325157041512    6.92411458696381    1.17059271780374
C         3.70215417881547    5.87944866933024    0.49358254880413
C         4.50392872582943    4.80517763529673   -0.18156364206133
C         5.13306532314979    3.79900616744965    0.58610794771838
C         5.87532721866167    2.78949677849051   -0.05287354352366
C         5.97141894577789    2.70748637420335   -1.46761902078577
C         5.34445392865528    3.72874395177794   -2.20914801465694
C         4.62772162196852    4.76882221533172   -1.58649571806174
C         5.05775112802721   -0.03598387811649   -2.19634649918269
C         7.02129112671562    1.48757556597978   -4.13075034694048
C         8.04387265713100    0.37837996307311   -1.34140902063111
C         8.69402787615572    3.27678667449531    1.59735222307413
C         9.33775226739639    2.04774489450228    1.66324351094260
C         9.14743986085542    1.22896811926458    2.76448357250941
C         8.31868011198264    1.62859633286226    3.79920842583451
C         7.67144841639225    2.85431204937080    3.73704986323080
C         7.85363306889311    3.67102840882932    2.63842059576423
C        10.10799016705637    3.68784471195343   -0.88624880050743
C        11.41593126963442    3.56984333594362   -0.41796636932248
C        12.38747937086399    3.02625410178362   -1.23674347893172
C        12.06486559933410    2.60736931201467   -2.51936917329470
C        10.76713286886778    2.73053348902727   -2.98720088184602
C         9.78807094109375    3.26966165127648   -2.17114282931881
C         9.73562420649871    5.84442625629108    0.84729048138029
C        10.13525979257671    5.97122740009790    2.17342335513620
C        10.86390622614564    7.08163448872803    2.56771112177191
C        11.19850479168900    8.06236629135388    1.64908828398646
C        10.80638589685199    7.93612794549163    0.32435161507020
C        10.07746371292069    6.83325045845077   -0.07773381387496
H         7.34875618082323    6.88334335734540    0.95601978109815
H         7.42412214133448    7.29334109607370   -0.63943968076133
H         5.81221981338028    8.59416926473448    0.54902309280182
H         5.13276914772020    7.66889669959962   -0.79673685474714
H         5.16484892496922    6.45975303755741    1.98540277764963
H         3.96310125051854    7.69140347692478    1.60572558418274
H         3.05815536330511    5.42888397728263    1.25226704905367
H         3.06515486993180    6.38202326606959   -0.23686273359629
H         4.97340590841204    3.75835289094550    1.65765320754518
H         6.29313190053469    1.98825312517263    0.54838703040902
H         5.36488678020345    3.68476511509816   -3.29255953612438
H         4.09440881480773    5.49200842702931   -2.19402073630053
H         4.76790601382799   -0.21880826273784   -1.16509139258137
H         5.27357221946029   -0.99869823294544   -2.64766986117481
H         4.19493714190168    0.37753070121954   -2.71130914552375
H         6.13144667821443    1.51796631654527   -4.75369239881985
H         7.66305136455068    0.71023400365504   -4.53336318673406
H         7.54147201874897    2.43289951650094   -4.25544738107930
H         8.90576146472753    1.03917386522899   -1.33815089296286
H         8.35406012074355   -0.55964910282467   -1.79084453861437
H         7.77999412720883    0.16787781810748   -0.30840590133263
H         9.98853666748262    1.73378841969646    0.86079414183387
H         9.65059006679937    0.27538505973662    2.81362477652016
H         8.17536820936674    0.98765913453346    4.65521520677389
H         7.02872994747310    3.16736425410031    4.54631183221830
H         7.35231727863473    4.63065929289769    2.57460337942305
H        11.66394129042974    3.90613926436706    0.57952083684282
H        13.40073363964366    2.93305566079622   -0.87673056042357
H        12.83005344784698    2.18982733689209   -3.15543001583400
H        10.51862636165639    2.41048220502552   -3.98730967399072
H         8.77209668583705    3.38682985082664   -2.52248362759735
H         9.89215165367162    5.20364745146694    2.89375683659516
H        11.17819554941416    7.17425872312920    3.59612735533973
H        11.77176280336971    8.92086456389733    1.96309676576811
H        11.07550976130627    8.69419593793581   -0.39494497913261
H         9.77632955606680    6.71305221107122   -1.11148078693508

