57
CSD_code = LOMZOE | q = 0 | S = 0 | Stoichiometry = C22H26CdN4O4 | MND = 8
Cd        8.82387505432025    8.70823723663515    9.43930415850070
N         9.74729383841755    8.56211585122461    7.27193013127175
N         7.96139304658455    7.92865740561548   11.49440944183290
O         7.34013845762267    7.23870678175091    8.62406002869672
O        10.48792385942770    7.28127840152260    9.90195952447496
C         7.70030049275642    6.64819070208360   11.66566894717563
H         8.30258611476150    5.96802710276023   11.07723088926810
C         7.26724106796738    8.83766924407787   12.17729854306833
C        12.77426002175399    7.80328169276749   10.33431811896641
H        12.90080756592708    7.79242494365227   11.41475275646187
H        13.46021490749257    8.53070112243704    9.90947687206299
H        12.98122064795614    6.81012643216534    9.94674552532761
C        11.33008389292073    8.19731746653843   10.01959562373859
C         6.39003013375001    8.04420866722924    8.72590864433833
N         9.02034642831606   10.89154993573219    8.39025036800271
C        10.16226479652105    7.40286388319885    6.80169022998363
H         9.65301465329261    6.53235406008899    7.19481304515376
C        10.31862094038860    9.68692355484947    6.84418907398807
C         6.71698634027648    6.19609982414126   12.53952972952238
H         6.52606357114443    5.14009918807065   12.65025462899435
N         8.38096802778656   10.53055418276813   10.98516449090954
C        11.34571506815250    9.67845259217086    5.90099594450637
H        11.79282345238615   10.60478913690724    5.57156403325744
C         6.26932906848430    8.47522815201803   13.08144259254273
H         5.72057925167127    9.23222840577380   13.62213879166922
C        11.18638029769058    7.29897998057192    5.86613983880440
H        11.50481177288537    6.33257362641637    5.50766511723259
C         5.98772057578752    7.13049369729202   13.25717528184130
H         5.21217833530300    6.81866181550473   13.94210309403958
C        11.78923255103946    8.46089365155447    5.41177791012369
H        12.59175106940506    8.42091776465765    4.68915827527002
C         7.58898048292162   10.24249637473502   11.91964474709697
H         7.09351305183541   10.97000728574520   12.57356565264497
C         9.83018713014135   10.93748272252916    7.42818887187677
H        10.22503575772348   11.85663368980708    6.97915036588985
C         8.47426854383932   12.01428351360813    9.07897083155345
H         7.38567280742842   11.91741249634869    8.96326844674893
C         8.77517749673731   11.84491049824700   10.59760081405158
H         9.86913015237561   11.85617758431211   10.70240733908092
C         8.93975311134401   13.39329905309785    8.59690185809866
H         8.67957795098101   13.51312350291732    7.54249960457202
H        10.02602646905371   13.45971049416483    8.69671352604236
C         8.15274172204596   12.99813888782235   11.39339582712934
H         7.06503505577161   12.95356934465723   11.29712368381202
H         8.41306181951973   12.88904965037021   12.44892197249321
C         8.64460779114288   14.34816211627947   10.88446911247661
H         8.18831703276954   15.15009311356416   11.46836273615729
H         9.72717668520837   14.41495708247734   11.01195285650943
C         8.29413927517136   14.50865954525429    9.41094999373261
H         8.63999678149935   15.47802424457551    9.04635992792178
H         7.20972464379861   14.47146612855145    9.28713261372462
O         6.51773686274255    9.21373797462871    9.13734476776683
O        11.05614769122590    9.40682172478038    9.89651700073718
C         4.99670135206923    7.56090612408216    8.31995785516825
H         4.83743987804661    7.80775959060625    7.27255345282593
H         4.24004990443903    8.06356968103302    8.91582840380556
H         4.92674524798089    6.48404107363349    8.44190608705812

