105
CSD_code = LONGAY | q = 0 | S = 0 | Stoichiometry = C44H39BF15NiO2P3 | MND = 4
Ni       -1.02738677151465    6.16630123670062    4.59396192697801
P        -0.20899301367409    4.49830911850727    5.84208349217241
P        -2.47238203139513    4.67987755436399    3.62068271760146
P         1.10442507674098    6.75212543168834    4.12145019854144
O        -1.89587638505403    7.90156481726858    2.65006973957651
O        -1.56981879808284    8.28179652248116    4.87558781769180
B        -2.40552544264869    9.58100866972994    5.09140992451686
F        -3.85889992411012   11.51407617430211    3.25665187816075
F        -6.19594594195091   11.03002363545889    2.07451710571120
F        -7.46567634980978    8.63045919783597    2.42709492830346
F        -6.29916557783560    6.71382570607527    3.98066159346674
F        -3.90272665710949    7.17250053023665    5.12815527912222
F        -4.92223011870913    9.26709047737073    6.80900410225648
F        -4.96295945653019    9.29161443130796    9.46343383536514
F        -2.67035357581969    9.70920393246269   10.89687870128343
F        -0.31694554245845   10.14014195169986    9.55363416557768
F        -0.27288212404618   10.15291848010964    6.88632580948270
F        -0.00366359592689    9.76686238563242    3.23966411091293
F         1.29886370702608   11.99290696793202    2.64188295867010
F         0.49460125458078   14.40681981643061    3.67107668354351
F        -1.66689804715475   14.48434098183046    5.34900137259841
F        -2.98086565288316   12.23155871696758    5.96893336697446
C        -1.55240525441546    7.66519600538494    3.76534519973585
C        -0.38849806559683    3.89409235400177    7.57032595203370
H        -0.16501329273715    2.83341374371204    7.66176387553276
H        -1.41213615558187    4.06562890883779    7.89725654374418
H         0.27754741569959    4.47245235946840    8.20977983910952
C        -0.59251067106679    3.01190189474758    4.82636891988671
C         0.06332846913075    1.80531712441188    5.04139148321360
H         0.76731291008330    1.70697877060173    5.85283542710553
C        -0.15934042538104    0.71858422869537    4.21753564553628
H         0.35835249758236   -0.21145105891796    4.39848675479716
C        -1.03675196767294    0.83534335201603    3.15339996573653
H        -1.20478933479508   -0.00254718140454    2.49337408074236
C        -1.70625113046644    2.02586626457748    2.93862613828922
H        -2.39003214016942    2.08948619442500    2.10737945664631
C        -1.50556718394720    3.12407330874119    3.76962827121156
C         1.61374556741573    4.47056968667603    5.60605860709150
C         2.45449925306612    3.58497188986048    6.27147034245942
H         2.07358517269477    2.95498987962427    7.06107746590366
C         3.79958930957101    3.51717897058661    5.95529427842888
H         4.43965155218079    2.82120379513510    6.47684806130569
C         4.32217169522333    4.34027378307838    4.97257083174627
H         5.36832874603774    4.27817453848285    4.71234484367660
C         3.51085618259132    5.27605111181240    4.35628151484897
H         3.93877581443040    5.95397866431726    3.63527157948123
C         2.15953101345646    5.35919941207725    4.67066402946607
C        -3.68142416971057    4.08985466131149    6.02868439644609
H        -4.58873514946802    3.96774400158551    6.61674430574150
H        -3.19053126216603    5.01271706187733    6.34311338742647
H        -3.02221188270056    3.24502107846796    6.23145494457493
C        -4.01429960827035    4.15760905150581    4.54246161597965
H        -4.72928992564793    4.96867653434947    4.38877377409049
C        -4.64834521261937    2.85628709336925    4.06720805579266
H        -5.53782373087612    2.66092057739907    4.66367582641730
H        -3.96822108578671    2.01555476001404    4.18986221050533
H        -4.95621704054087    2.91362756902487    3.02665491643059
C        -4.07614198992720    5.75392144993753    1.59125414282233
H        -4.34417679915669    5.76431744035813    0.53596770505170
H        -3.69145980990697    6.73749629058295    1.84943279848115
H        -4.97818987454060    5.55365743310881    2.16338957652897
C        -3.01532879884884    4.68627783671970    1.83919342427302
H        -3.44757663932905    3.71021809014564    1.59741364623645
C        -1.78841141406354    4.93577533748679    0.96844174138473
H        -2.06474043698045    4.94733397344655   -0.08416027777179
H        -1.03960000264119    4.15912824012128    1.11958988994442
H        -1.35434973720087    5.90136868541700    1.22130346592932
C         1.17062361047919    7.57406456763390    6.73043659074843
H         1.36115576188889    8.34454276626371    7.47373851245162
H         1.66113806935563    6.65751192937492    7.06107234528111
H         0.09198695528591    7.40015291484721    6.68448447322794
C         1.71249464809125    8.01364400058580    5.36859748128329
H         1.22809314729627    8.95336389277643    5.09192733493901
C         3.21647815394789    8.23750241599692    5.46984012526250
H         3.39966162116940    8.99417587084663    6.23134269533309
H         3.64555493914296    8.59250963637466    4.53975835655629
H         3.73098289173088    7.32762142904955    5.77245093106704
C         1.73493087182681    5.85222191708152    1.60580574380274
H         1.61119659516908    6.01648419365171    0.53772714014218
H         0.97128701688003    5.14673640555541    1.93687929323030
H         2.70923601329536    5.39882361022794    1.77059751483654
C         1.59347061972178    7.17190989482335    2.36598702613642
H         0.68931527929179    7.67430851486043    1.99732799039215
C         2.75888725255709    8.11757262257416    2.10857917726699
H         2.82371575737242    8.30218442087085    1.03711974017581
H         3.71194816551466    7.70502410160413    2.42942456717359
H         2.59473060044196    9.07366636860528    2.59760071598249
C        -3.80496078220137    9.37772727234417    4.28457037108978
C        -4.42658502046866   10.32037397922753    3.47612108242880
C        -5.64606084315105   10.08656257797747    2.84490857040150
C        -6.29181953223445    8.87063074138404    3.01693168216123
C        -5.69168464565903    7.89758097051829    3.80581195879136
C        -4.46713032514935    8.15801468072260    4.40082208012790
C        -2.57910647569318    9.64740633867890    6.71816341903981
C        -3.75446319431883    9.46379157358776    7.43721242376655
C        -3.80186443034241    9.48608007285199    8.82926041484240
C        -2.64249231028825    9.70246760525020    9.56157585026557
C        -1.45266177917918    9.91764815957853    8.87808935158756
C        -1.44688904892222    9.89713111580385    7.48953896932007
C        -1.56571213099290   10.89910024631638    4.62498719589783
C        -0.46782647236105   10.90942113825662    3.77728640357455
C         0.23206011653845   12.06710413778000    3.45081034981521
C        -0.16828795826957   13.28747145281710    3.97295419206728
C        -1.26726241001427   13.32200998284300    4.82456977219004
C        -1.93254116628471   12.14379457681113    5.13488779477650

