38
CSD_code = LONHAA | q = 0 | S = 0 | Stoichiometry = C15H12I2MoN2O6 | MND = 6
C         1.39130973589062    7.16198333284644   10.87836440033843
H         1.69242098117595    8.11685659918842   11.28147461508493
C         0.86860779387106    6.18732634431638   11.69899997415423
C         0.52916800802951    4.92772455034926   11.21236750349205
H         0.16407413229126    4.15431819110083   11.86984868252470
C         0.67690047918220    4.69066489503042    9.86536047420919
C         1.15171579354563    5.66741847359970    8.98439642254719
C         1.57053614195013    6.91168792600283    9.51076632599821
C         2.24204450886533    7.84590699924644    8.65757661323494
H         2.51042667364575    8.82580929032032    9.05009852013911
C         3.87073694952077    7.88529856195225    5.70274215930390
C         4.74961586311622    8.66621850906101    4.84174915984999
C         5.32081132100069    8.06138294393781    3.71554595463211
H         5.09775482146282    7.02322277478531    3.51203928698121
C         6.15269265199627    8.77864514923091    2.89223199291821
H         6.60313012372707    8.33068347094111    2.02094627188984
C         6.44144904659630   10.12210225353903    3.16813634196778
C         5.87387305791791   10.72558405715322    4.29242908205264
H         6.08101302005430   11.75731175118592    4.52805123097988
C         5.03927981320782   10.00184411326157    5.11840467237620
H         4.59752319330102   10.45877568006340    5.98896896584927
C         7.61724181318771   12.08429133068570    2.50906125919343
H         8.28522642226076   12.34660728058317    1.69052565373465
H         6.73740020961915   12.73383866623707    2.48054450773927
H         8.14077566775734   12.21747996859602    3.46030084110919
O         1.19614719911408    5.39943807483344    7.70176677907391
O         3.59345069316078    6.65726973035715    5.38927445769407
O         7.26936991883992   10.73448441512908    2.29642485308109
O         0.69931511472179    6.75275880408322    5.25022154277370
O         2.18034907339156    4.48564520455054    5.40097628529571
O         3.87162586955154    5.00408997580295    7.59835915264153
N         2.63206826789396    7.52196583371574    7.46787600480790
N         3.36686276800173    8.42086614346431    6.78459680756514
Mo        2.67604397303236    5.50511219767089    6.58789917547599
I         0.60871797817844    6.58927844215782   13.75240374252756
I         0.30184331592275    2.84310957982407    8.94211799375956
H        -0.08985671744145    6.28652093679624    5.55240748447176
H         1.00893432244901    6.25657754840186    4.47964480850522

