45
CSD_code = LONHUR | q = 0 | S = 0 | Stoichiometry = C14H22N2NiO2S4 | MND = 6
Ni       11.77594496066402    7.80318483593022    9.18556887419335
S        11.47626217549932    5.53703949557730    9.26433151017278
S        11.04919518576565    6.84692710331594    6.67326669561075
S        12.17442945989518    9.95816175116544    8.68408535000947
S        13.94134881337578    7.71608044427838    8.54796294297255
O        11.07131157961573    4.23480136515922    7.11696452791394
O        14.41069290559694   10.08354434559872    7.41210653094604
N         9.97337295186940    8.15387155588741    9.89929960532922
N        12.16960539681230    7.93022923246988   11.50651624879075
C        11.19660027100503    5.46244974890712    7.58953239186872
C        10.84598891711079    4.03264679033267    5.71674814486614
H        10.19790002912351    4.84235918381280    5.35323887966746
C        12.17495751990454    4.06964900509234    4.96938634868591
H        12.64802118246678    5.04046109518814    5.09645494563784
H        12.00659237867463    3.89963016733077    3.90994606975191
H        12.83950575827280    3.30079619535534    5.35679341690334
C        10.14613320059832    2.68840565533199    5.57846102163706
H         9.21843150989179    2.68836038349562    6.14485989402181
H        10.78659107020852    1.89849463933257    5.96199654105332
H         9.92486791383711    2.49510176570356    4.53289880586141
C        13.62111003139535    9.31204261358487    8.12454035347526
C        15.64920854228917    9.56185444400886    6.90848907466769
C        16.73400932084233    9.69947509725430    7.97115073603240
C        15.97229921150029   10.35052432152515    5.64810443435739
C        11.03871184475014    8.68833711150511   12.02971450530709
C         9.80334545990408    8.46966613597190   11.18580170674520
C         8.53580762477714    8.64562125268987   11.72549362623625
C         7.42362157874159    8.50577959826359   10.91461808394557
C         7.61462081126422    8.19923147697402    9.57716319427994
C         8.90686655631706    8.03066446276760    9.11394895633455
H        13.05034271450061    8.30606347491149   11.84268691786959
H        12.11029586126962    6.95355513729708   11.79159809799018
H        15.50124176145382    8.50001718046598    6.66796973546799
H        16.46634837217040    9.13166527610583    8.85912017264414
H        16.85496294195922   10.74544483798570    8.24306571257157
H        17.67517284221453    9.31946976700196    7.58507632210866
H        15.16588681471743   10.24954528864828    4.92662934413552
H        16.09074722459006   11.40308022913573    5.89168089384539
H        16.89225704089131    9.97834785836472    5.20711502360821
H        10.80926653671272    8.45581445586775   13.08025418293858
H        11.28347340787448    9.75521176841951   11.95994185265067
H         8.43041266122527    8.89270534269995   12.77073865442058
H         6.43057082437074    8.63657133036906   11.31725433337384
H         6.78083304410650    8.09009914658504    8.90274573508112
H         9.09913378997047    7.79081763233372    8.07367960401278

