55
CSD_code = LONMUW | q = 0 | S = 0 | Stoichiometry = C29H20CrO3P2 | MND = 8
Cr        3.04290196629893    2.81821579766361   11.09539653854795
C         2.81657802643130    2.15322647318458    9.41950790968212
O         2.76690531087270    1.77772456903726    8.32369867959671
C         4.77355837527074    2.42725405830950   10.71183547179188
O         5.86430320061718    2.19804292796620   10.37773674481026
C         3.35105056496134    4.30616976395850   10.09093865334301
O         3.56692194296304    5.17898334411942    9.35468732056269
P         2.94673377112352    1.49119126011948   13.20149827549099
C         2.90500429551241    3.29655616897788   13.31521750409160
C         1.70141307959291    3.83532690723912   12.74316386219519
C         1.21982846760257    5.15182036391232   12.80959138480703
H         1.79035473971718    5.90353164383379   13.34551713687678
C         0.02567350242869    5.46428594042905   12.20618879792492
H        -0.35154315712152    6.47490254903737   12.25532458867308
C        -0.71660811012426    4.48677547700124   11.53103005933306
H        -1.65051304430282    4.76418755202448   11.06594313543302
C        -0.28017367057783    3.18529199213917   11.46402787836402
H        -0.86939034910572    2.42791234333971   10.96473056350766
C         0.92972826731694    2.82671398404503   12.08316396099544
C         1.53427000422578    1.54039134054548   12.17760821796896
H         1.03823550652204    0.64143163936446   11.83069122528280
P         3.79049048494055    4.11705932733962   14.58078421738535
C         2.69993173341480    4.52655749326722   15.96512526493418
C         2.07111083101225    3.45163014921125   16.59497326400058
H         2.32661015987225    2.44131981468356   16.29767842893765
C         1.13306222784751    3.68240163487427   17.58067034574213
H         0.65342532489674    2.85053626040816   18.07465269829382
C         0.79957519015529    4.98417482223048   17.92728127416900
H         0.06151208997095    5.16456944220041   18.69397601374036
C         1.40173590820891    6.05270257326281   17.28243445260015
H         1.13011310947230    7.06426859623921   17.54462031839336
C         2.34693922366536    5.83087137644569   16.29724096709524
H         2.81456467078977    6.66457861133468   15.79184069255133
C         5.09303345645725    3.01119363222515   15.15838181182157
C         5.32030166790924    2.74808404637428   16.50352185328888
H         4.68630109727856    3.19110442436903   17.25958744502304
C         6.35774776450915    1.90705081104579   16.86586357494692
H         6.53370132180442    1.69366969859951   17.90987321529337
C         7.16655081638431    1.33938066409270   15.89447663241607
H         7.97125753960024    0.68068727846615   16.18452029347498
C         6.94917588884313    1.61780944887972   14.55367705197286
H         7.58207629433794    1.18154971482107   13.79645851130012
C         5.91863757668085    2.45965479094781   14.18072183054017
H         5.74678015990382    2.69022211248414   13.13635461347096
C         4.66455358207395    5.61696138184382   14.06138619296291
C         5.35599806123904    6.35163980142044   15.02244380257769
H         5.32371883583024    6.04234050930154   16.05987972430506
C         6.07830206564652    7.46527567057567   14.63926003402524
H         6.61380582442825    8.04068111749747   15.37998477087913
C         6.11965736662941    7.83938709293377   13.30358352261795
H         6.68565520363726    8.71034858922863   13.00930101153432
C         5.44734146984944    7.09524381966074   12.34752574923582
H         5.48686135490307    7.37680516856348   11.30678015295128
C         4.72266509355548    5.97699391961500   12.72195881922143
H         4.20927391402984    5.37771010931210   11.97818353901308

