70
CSD_code = LONMAF | q = 0 | S = 0 | Stoichiometry = C28H36ClPPdS3 | MND = 4
Pd        8.13874115709870    7.04533045567339    4.18785484462885
Cl        7.58750580358979    4.85604868117420    4.01668649925845
C         6.33649020252555    7.44174333868365    3.28836363370921
H         5.51096537692101    7.04080677559874    3.88292973653235
H         6.34033844048393    6.92294669178994    2.32548199193404
H         6.17407253824350    8.51307461417239    3.12113282415466
P         8.86427241488582    9.13612876054952    4.41790167560085
C        10.61914819356594    9.20460135569101    3.91280647439920
C        11.23078864116809   10.36553432175871    3.45187325985287
H        10.63804710703973   11.25677179200782    3.29909553007872
C        12.58123117695800   10.37517674543921    3.15777996879592
H        13.04372982566038   11.27624409765878    2.78327541913986
C        13.34226355987305    9.23516703547509    3.36107030482030
H        14.40353055584032    9.24923578639319    3.16225189250898
C        12.74686960249477    8.07615767746058    3.82530745742190
H        13.34210841326120    7.19718722505269    4.01352593309263
C        11.38070634321748    8.04401596424920    4.06369084406673
S        10.61108893437231    6.53584669558785    4.63163508230119
C        10.77670638321796    5.39840322069367    3.17973725529709
H        10.10247525716907    4.59085478029168    3.48829043433207
C        10.24081256323610    6.06005817841875    1.92303177737622
H         9.20201686465461    6.39556047011292    2.09074860464907
H        10.24195797650589    5.33839427597100    1.10714806870341
H        10.85334454645907    6.91671053114885    1.63778979932738
C        12.18604413568451    4.86197390891967    3.01097912046817
H        12.60373905765068    4.55995741624851    3.96886619878873
H        12.83595358207462    5.60381514278363    2.55137882922136
H        12.15927250663551    3.98918409384955    2.36070692710852
C         8.07954112571968   10.54241495027303    3.58933232988020
C         7.32320167589139   11.48114150233355    4.28291992114138
H         7.28831422033527   11.44102390819032    5.36239048535695
C         6.61330739064934   12.45650296512471    3.60722408427886
H         6.03308295508606   13.18108411306832    4.15793755123085
C         6.64629336523560   12.49460395093856    2.22281723888084
H         6.10373931486279   13.25956355856917    1.68765164034470
C         7.36218533941761   11.54759442105421    1.51337844712091
H         7.36710843773536   11.58952851280275    0.43565834735336
C         8.05898153792712   10.55181236836462    2.18468845275021
S         8.97298189027822    9.28427249812782    1.37887249875422
C         8.25014514341740    9.15581861596212   -0.31955536651296
H         8.32166378777166   10.14919321752327   -0.76831858803608
C         6.81228365139543    8.67928036947244   -0.25222550604976
H         6.20111617562976    9.34528173611103    0.35324530139256
H         6.77351300525483    7.68487533815221    0.18607191265158
H         6.38903254041787    8.63520512922347   -1.25432502027650
C         9.13424573832907    8.18605466605298   -1.08714799384152
H        10.16814638949891    8.52377351905137   -1.08461023062092
H         8.79289379873742    8.11176786970393   -2.11749958752267
H         9.09031632080657    7.19918621055883   -0.63320020461036
C         9.13837166216377    9.74339010891180    6.12804432074685
C         9.64418354906522   11.02639318376325    6.33436274239496
H         9.85456588413713   11.65687290114765    5.48272796198663
C         9.86955675881904   11.50310997943124    7.61058039889462
H        10.25570389307201   12.50199222236515    7.75011332172519
C         9.60414917906512   10.69890050831367    8.70888850360143
H         9.77887797657466   11.06877157205268    9.70803126186680
C         9.13396384875649    9.41380118619695    8.51971768366179
H         8.94845561060772    8.76490843175321    9.36194280903274
C         8.90311709570928    8.93234014285820    7.23801595290061
S         8.35625431430464    7.24409520556782    7.06436646185114
C         6.56784428094505    7.42025057717515    7.51861730907067
H         6.52918935661977    7.56916413799661    8.60126390619965
C         5.95968574540688    8.59670976602167    6.77972950558814
H         6.33445615740646    9.54414488537004    7.16453531441153
H         4.87678459436689    8.58489926907646    6.88924224963390
H         6.20464125275963    8.52143241140375    5.71443813103983
C         5.93100138366401    6.10308707433670    7.11586214049900
H         6.36612284512573    5.27769470809541    7.67470723227347
H         6.11117618535649    5.92553535338974    6.05160431934568
H         4.85818346095102    6.12479692157237    7.29536237206664

