40
CSD_code = LONVUF | q = 0 | S = 0 | Stoichiometry = C12H20I2N4SiZn | MND = 4
Zn        9.65988948992094    6.59584825760859    6.88124274238857
I        11.32168682936973    5.19117219643163    5.60479234739134
I         8.58909461483690    8.83817724351370    6.40042008957514
Si        8.91396484267839    4.78273349046650    9.82248553243567
N         7.99031916479996    5.36984423731426    7.36789108160264
N         7.61426952734566    5.02080114281531    8.63191612446346
N        10.36404498327905    6.83352581249577    8.87524627145008
N         9.69362660694928    6.37385929324503    9.97100389008703
C         6.96344286993185    5.57663414828978    5.13332316219640
H         7.96715058445881    5.46503143634379    4.72729232072175
H         6.63405566964039    6.60256626162206    4.96385261615789
H         6.28805377603053    4.91192404711420    4.59984711363354
C         6.93436212172762    5.26907173972611    6.58280233500386
C         5.82855098272702    4.84752000157330    7.34135617065908
H         4.83248804472989    4.68496725095857    6.98489184940607
C         6.28763161484978    4.70011269657211    8.62487761916428
C         5.51374602691853    4.29668979381499    9.82319648707372
H         5.61234449308871    5.03392690606909   10.61663632703074
H         5.84653857774978    3.33200261841263   10.20078254519804
H         4.46417276275708    4.21699537090508    9.55254533017893
C        11.93711356855099    8.64651854226860    8.30644313124440
H        12.19995407545607    8.04859681236855    7.43579003853197
H        12.84807225105371    8.95951179103846    8.81166302568181
H        11.41320878332904    9.54134411217144    7.96810731121691
C        11.07841671725615    7.88123124890237    9.24099238788535
C        10.87367026002564    8.13049607189019   10.60914735911951
H        11.30717945991758    8.91963079593239   11.18793645102826
C         9.99704471296244    7.16787137151571   11.03919898409061
C         9.42552467243279    7.00478880602452   12.39736951905496
H         9.71539178728018    7.85824407288952   13.00452466777890
H         9.79602938810794    6.10072220460688   12.87617047048470
H         8.33969053093641    6.95876048491067   12.35849877773949
C         8.26164168300582    4.15892016928548   11.48165884641813
H         7.52481146013220    4.79444389215944   11.95512893587914
H         9.09058691310406    4.03718358550696   12.16905160810728
H         7.82134847329435    3.17787666986655   11.34819759864845
C        10.16876945186212    3.55056798744730    9.11514593255283
H        10.54610179802432    3.85029725037785    8.14137766151440
H         9.72670237146863    2.56450620973898    8.99486066513162
H        11.02980805800839    3.44448397580198    9.77053467207446

