25
CSD_code = LONXOC | q = 0 | S = 0 | Stoichiometry = C8H9N4O2SV | MND = 5
V         1.91076401433305    1.13436608506903    1.60258812251518
S         2.07178057591924    0.34158188493875    3.82141487039667
O         2.55542081160858   -0.09744315908391    0.97048499913869
O         2.83236692982338    2.33444734478299    1.80983220392411
N         1.01504365327911    1.79425180920282   -0.02625732657857
C         1.70110759632656    2.07742187765837   -1.11944313997646
H         2.77268415059350    1.92109721355737   -1.05347984167276
C         1.08557222316934    2.54356075680084   -2.27225638732731
H         1.67231149213968    2.76631247307013   -3.14842685496367
C        -0.29420639711008    2.71483511899593   -2.27044864546527
H        -0.80282970850106    3.07526354585822   -3.15214379856815
C        -1.00841050311954    2.41849349774726   -1.12692884475666
H        -2.07921975106105    2.53977941660362   -1.09256707040729
C        -0.31705574941013    1.95293041464072   -0.00080001081896
C        -0.92640266995337    1.60532453142410    1.25985092036576
C        -2.40177522821567    1.71938781664205    1.49464343137946
H        -2.94873962996999    1.07630430242883    0.80596266296279
H        -2.73374109257767    2.74636016510656    1.34581773088643
H        -2.62061196208184    1.41693626207389    2.51572217030872
N        -0.08190657528948    1.19041369422845    2.15856834801796
N        -0.52549152904932    0.84225342740580    3.35599066178442
C         0.40749300969344    0.43463541039061    4.19996751434601
N         0.01118371627345    0.07510290502524    5.43234350804496
H        -0.96335415941121    0.09727613958425    5.67637695582091
H         0.69881678259039   -0.25579293415178    6.08478782064234

