37
CSD_code = LONXAQ | q = 0 | S = 0 | Stoichiometry = C14H14ClN4O3Re | MND = 6
Re       11.82435878973069    5.24128689968160    5.26618733480408
Cl       10.37007030434432    3.34392641535882    5.51455696921818
C        12.83850380258373    6.89149750423499    5.15722931118619
O        13.42468736890759    7.88318429348258    5.12987019222604
C        11.58984797277538    4.99775732565402    3.33552936968129
O        11.32255543926924    4.76316609742753    2.25272565312989
C        13.40326053572030    4.10910435905820    5.25019834938172
O        14.28586508302670    3.37479759769847    5.27362082573732
N        11.98311274272448    4.81304539809942    8.51178582942711
C        11.47914679602525    5.26853003746047    7.34562157028514
N        10.24337655763092    5.69442016433137    7.68617043529832
N         9.96337848328208    5.52751874494946    8.99315065055142
C        11.03504924305232    4.98995758894503    9.47411315609927
H        11.16020777843139    4.71623543398329   10.50171639303907
C        13.30413884893789    4.26502748567348    8.70309591760002
H        13.42743008948406    3.41708696812690    8.02368304956869
H        13.37217013980708    3.91017354281567    9.73459874148212
C        14.38397451905330    5.31018856959956    8.41782329288566
H        14.27636771784981    5.65120029118064    7.38460085790273
H        15.35698261259639    4.82735150654402    8.51306152506688
C        14.31048802326125    6.50924357500024    9.36037388467986
H        14.46620363333904    6.17850168021861   10.39066704146243
H        13.31832674926132    6.96415957007295    9.30134029196670
C        15.35500709679893    7.55561688352447    8.99480459120448
H        16.35484615323953    7.13292065218816    9.05532526889180
H        15.29850704267742    8.40521718726287    9.67062951334684
H        15.19288421029576    7.90924959340991    7.97955215967769
N         9.84689199014288    6.28219480305920    5.50900149337303
C         9.35420381485593    6.19278727281159    6.74914752014563
C         8.05657132671024    6.54976825806103    7.09169563569859
H         7.73367651798143    6.43945240240878    8.11389911583695
C         7.22971581910222    7.01681897736709    6.08821328372410
H         6.20996955770100    7.29427753193886    6.30553765179817
C         7.73378033719945    7.11668025131587    4.79762555390109
H         7.11975458897379    7.47430957927792    3.98728481818933
C         9.04248198126995    6.74078435483078    4.55534261279978
H         9.46610633195629    6.80646120294626    3.56222013873274

