68
CSD_code = LONYIX | q = 1 | S = 0 | Stoichiometry = C34H26N5O2Ru(1+) | MND = 6
Ru        3.49480308789158   14.37755700822049    2.22753110416517
N         5.38604008925460   14.58817193826751    2.86125246277273
C         6.08939559404387   15.70584094769833    3.02641467528614
H         5.54889523782827   16.63126668764703    2.86577097647194
C         7.42143299392769   15.71050522371373    3.39629767371628
H         7.94545947550074   16.64406315154477    3.51801740896083
C         8.05906425214077   14.49547537354741    3.62014867850889
H         9.08933532036808   14.46283777620204    3.93642357623694
C         7.35344618897332   13.32699305800583    3.40309168610863
H         7.82980126832073   12.36864090342177    3.53087530562897
C         6.02071095132968   13.39266298668385    2.99847241544046
N         4.06550931930199   12.61905530423576    2.00351573956486
C         5.24422432568363   12.24096070854049    2.54453461801662
C         5.63928288199599   10.90866310923313    2.49136674021949
H         6.56350191112983   10.58794656441365    2.94270564416740
C         4.82584980911530    9.99358081641571    1.83418434851857
H         5.11923798222659    8.95810652755103    1.77752109490585
C         3.64214422650671   10.41128862069182    1.24092409631467
H         3.01774233757489    9.70542647350155    0.71909122366039
C         3.27084379678503   11.74792210834924    1.35055895259448
N         1.84418350200483   13.65170105132806    1.30963642034542
C         2.03974139859663   12.37623073123998    0.87435312352907
C         1.10537166509991   11.74143845694160    0.05788554054655
H         1.28895409691018   10.73678061961422   -0.28645217978720
C        -0.04327347830062   12.41344351925799   -0.31577432387646
H        -0.77001044087090   11.94127069277701   -0.95740510779070
C        -0.24316544906245   13.70467848350127    0.15690671530710
H        -1.12944922730121   14.26159656971653   -0.09825367074747
C         0.72295369449753   14.27706659835238    0.96437930099551
H         0.59481496736552   15.27843297131997    1.35643784902122
O         2.76482217729609   16.30553334169052    2.54912305367174
C         2.28757573471363   17.11660191637691    1.67441155513811
C         1.47107938451200   18.19138520602542    2.10972985301304
H         1.28379247147870   18.26797962470085    3.17049538257998
C         0.92916215059513   19.08711140762444    1.22883063731929
H         0.30395502169970   19.88743029353571    1.59547716996540
C         1.17463096590116   18.97513666437161   -0.14399466806345
H         0.74032530704785   19.68389640656726   -0.83025813571186
C         1.97671032361235   17.96687885215810   -0.60585975533072
H         2.18603041522108   17.87588103164397   -1.66041462661025
C         2.54953000601091   17.02490736577105    0.27249170971109
C         3.43299973117931   16.04405618287547   -0.26842981074031
O         3.76259021847739   16.14822999336604   -1.57172694366380
C         4.64806916457292   15.15325690955876   -1.82100778020754
C         5.28765063120627   14.83611598784424   -3.00277161709973
H         5.11197499689651   15.40323931318436   -3.90135542469331
C         6.16387411748931   13.76635911632073   -2.96222860959117
H         6.69002604784855   13.47894083280872   -3.85830854990872
C         6.38822595874598   13.06159872460899   -1.78253315984569
H         7.09026198571073   12.24214229381506   -1.78780482585795
C         5.74564141530411   13.38235336242964   -0.60144194860403
H         5.95850312267925   12.83150517962129    0.29915682628647
C         4.84620549293733   14.44263538179080   -0.62445016840588
N         4.04469940303918   15.03036625024845    0.33550300080860
N         2.76555999729936   13.86034990808302    4.17505198224266
C         2.92048455783840   14.58179874639407    5.29680812383540
C         2.29324789360431   14.21595855451540    6.48811199562029
H         2.44351104286162   14.82704342796446    7.36402104031261
C         1.49349983745775   13.09358773161154    6.54961061864992
H         1.00192851853830   12.80770100166045    7.46593050267928
C         1.34777999044214   12.34639833460862    5.39121850230984
H         0.74216431441452   11.45524961574857    5.36803662699935
C         1.99487848492298   12.76713910513213    4.24696903054212
H         1.87870518246158   12.17331013932391    3.34960219118313
C         3.79394631970047   15.78974981496325    5.29619553337410
H         4.83935457164335   15.49252372228223    5.37457491446846
H         3.55930082092048   16.42401214630349    6.14639447378979
H         3.64766044486597   16.35343113054390    4.37742921103896

