55
CSD_code = LONZOE | q = 0 | S = 0 | Stoichiometry = C16H28Cl2N2O5PRe | MND = 6
Re        1.58163351578274    4.20791700312261    4.10775420272521
Cl        3.65068158497028    4.53090837249347    5.06924029288950
Cl        0.65963682979755    3.38522168218471    6.08481254914028
P         2.72328940371401    4.60451411742019    1.99732369841545
O         1.09292539061773    5.77529561390874    4.34006654702692
O         1.97490425839159    2.52762225608852    3.60619103633631
O         3.13831017331128    3.28912515589276    1.20686226498454
O         4.12673603950385    5.35070791942263    1.91676350173223
O         1.95468754588863    5.56606055822909    0.94317333994432
N        -0.54182699648072    3.84796963599906    3.30284262072650
N        -2.47687995160838    2.52583194105360    3.43964800731903
C         2.64989434077149    1.56679025117048    2.88365370228459
C         2.59119268323855    1.96881498379808    1.36551864768493
C         1.99911596725984    0.19777539013231    3.14443302361079
H         2.05257090826407   -0.00156812953730    4.21278136901347
H         2.52031872945667   -0.59301583205920    2.61432468818469
H         0.95177243609255    0.20102324323357    2.85353552202961
C         4.10696380293961    1.54639945711739    3.38072653684925
H         4.09752674739993    1.53732057907648    4.46904641492910
H         4.62684172577949    2.44831429386574    3.06192790807460
H         4.62947063424900    0.66485662265971    3.02189356598556
C         3.46633124790289    1.08377790388270    0.47980549099426
H         3.35887732962390    1.40484421717155   -0.55354459384091
H         3.16535888975954    0.04393097562301    0.55672869776371
H         4.51003103301619    1.18248091073311    0.75971943623765
C         1.15793724716949    1.98738349849111    0.83555065761633
H         1.14974672138080    2.47954666973242   -0.13494649060578
H         0.51745678507164    2.55139159645846    1.51050469380667
H         0.77069317693729    0.97895760415467    0.72184621388600
C         3.92048477243574    6.72402088154478    1.55182284658531
C         2.80281589252963    6.62802959017127    0.46719408310423
C         3.47043061506760    7.48796036243182    2.79353207916964
H         4.18783704288086    7.29824856065113    3.58883214048508
H         2.50260287908796    7.12555282103068    3.14266986448307
H         3.42238749425897    8.55576753146591    2.60205209159757
C         5.24802933536276    7.27334633489730    1.04727285275668
H         5.93836266599495    7.34491486342336    1.88279359498727
H         5.10406432492581    8.26229401565398    0.62127309701506
H         5.68390502900989    6.61566339637315    0.30256086475932
C         1.95996274949339    7.88864519761271    0.33286668522280
H         1.24086185855078    7.75806318515858   -0.47171001415127
H         2.59654857388982    8.73804742226978    0.10191180602627
H         1.41668232419788    8.08360289047006    1.25154242022577
C         3.35401966337978    6.19811542120271   -0.88988205169376
H         2.52152189161646    5.93429305127114   -1.53810056813993
H         3.98499603505354    5.32080834593650   -0.76884049739018
H         3.91927072309187    7.00177847785642   -1.35215771135787
C        -1.19252713997541    2.73184494364037    3.62250836284290
H        -0.61887439837700    1.93335754288295    4.07414999350899
C        -3.18917445416789    3.51536918802125    2.92413870931693
H        -4.24651612512596    3.32430808371084    2.79918029993905
C        -2.60815914719772    4.72483548620041    2.56463259536122
H        -3.18342125204670    5.53386693167247    2.14657319991781
C        -1.24478315444064    4.84468670048234    2.77585608012616
H        -0.68982639969157    5.74028028243750    2.53174362954552

