64
CSD_code = LOPCUR | q = 0 | S = 0 | Stoichiometry = C28H26Cl5O3PRu | MND = 9
Ru       17.18777175776319   10.38791466884329   13.09348018831472
Cl       15.82994198187987    9.49025254951495   11.40135848377170
Cl       16.22648476391455    8.86386723562646   14.60360457110568
Cl       12.75021862856474   17.28746436336232   16.61256665782018
Cl       10.60752582422428    7.06188643941975   15.49145126969059
Cl       15.76432862067295   12.77489032495565    6.83766047864813
P        15.45228163163491   11.72473101627483   13.62975961572227
O        16.08087301745982   13.10165760450069   14.19105453797381
O        14.40616579845302   11.46837101634557   14.79479120261950
O        14.38947448138900   12.19663825519984   12.50173515888596
C        19.06891081586445   10.68300298446953   14.35578978205098
C        18.86367763718508   11.84437145742726   13.58423779100823
H        18.84205123699864   12.81398313112717   14.06853387536290
C        18.81594241114767   11.78985774757027   12.16831029364414
H        18.78166995739333   12.71042512408832   11.59790981175401
C        18.88213137399059   10.56188029701850   11.49577312515488
C        19.05071292318970    9.37851221070480   12.27177961320242
H        19.15871790922446    8.42525367125393   11.76487683035126
C        19.16911945876893    9.44782344347756   13.66383560291968
H        19.35960849587038    8.54052648601008   14.22872646423644
C        19.24868995925793   10.74710254901304   15.85315443686920
H        19.30167093297535    9.72053899413340   16.23136023546471
C        20.56135479013624   11.46063211827827   16.19236988935170
H        20.71997872702903   11.45095533509975   17.26765911596027
H        20.53699978219032   12.49591941309848   15.85883832610410
H        21.40422961593792   10.96393112097136   15.71553734079615
C        18.05652856649176   11.43245659151931   16.52312402403420
H        17.99171747786172   12.47880109967730   16.23311690989581
H        18.15793366370601   11.37825954756318   17.60436330907237
H        17.13476539893124   10.92725866335880   16.23251648074906
C        18.80676502247510   10.47569713455635   10.00477406610166
H        19.56919133452720    9.80012366006923    9.62003496792351
H        18.92465524750803   11.45430537746427    9.54588036820784
H        17.82976702072239   10.07788625771206    9.71744984493209
C        15.26019754741448   14.07216378337042   14.75270645322482
C        15.04672918801821   14.07478509491455   16.12370614574346
H        15.48525760676380   13.29463554690206   16.72541891135224
C        14.27437720427763   15.06623575008553   16.69949422415524
H        14.10293130442547   15.07580651220194   17.76415500253214
C        13.71480127494302   16.04900838553205   15.89665270053939
C        13.91911953722941   16.04656147934333   14.52575505560971
H        13.47396609904528   16.81233746517903   13.91067350302181
C        14.69276770337065   15.05281972331288   13.95276296793017
H        14.85572284682998   15.03606434284293   12.88621141800587
C        13.53018377943379   10.40423263722993   14.90663908502937
C        13.27244839484665    9.52918149939502   13.86444446397682
H        13.79349197883240    9.64024311222929   12.92371848871093
C        12.37383639752967    8.49374863197644   14.04565314305037
H        12.18143025463912    7.79962945271145   13.24341666380651
C        11.73287424839141    8.34933715360788   15.26569263293028
C        11.98337995716430    9.22628785724789   16.30924753602650
H        11.48184587097961    9.10017390817288   17.25554229179650
C        12.88743001859846   10.25635361805713   16.12777924431729
H        13.10501504062522   10.94732761348476   16.92655374962970
C        14.72516338421177   12.34228324917154   11.17641607936351
C        13.86629319100945   11.83740156112886   10.20878359001928
H        12.97132436723402   11.32178152374384   10.51623846182356
C        14.18313785732147   11.97493105877880    8.87163306549317
H        13.53095582679102   11.57186851182761    8.11363149658589
C        15.35675850461760   12.61869398914953    8.50754649265276
C        16.20756507158634   13.14161351243500    9.46674431851624
H        17.10935197226544   13.65289512383137    9.16740421896134
C        15.88705131621056   13.00184855039499   10.80547368430871
H        16.52353599023986   13.41137146195647   11.57629024117762

