67
CSD_code = LOPDEC | q = 0 | S = 0 | Stoichiometry = C31H26Cl2N3O3PRu | MND = 9
Ru       -2.13417473220389    3.97618408952300    4.95676644774339
Cl       -1.77129518924689    6.24860050109771    4.47736857746246
Cl       -0.77043598850807    4.21479278398203    6.85661691984477
P        -0.24587889985707    3.59444077849418    3.79173001867314
O         0.48997325846510    4.66231076260540    2.87134827320534
O        -0.61313375450783    2.52098189222081    2.64468137406840
O         1.08763896676363    2.98941523565288    4.48556513908915
N         3.33543745368259   10.48288769505132    4.58346736044881
N         3.76435265045098    0.67706731385478   -2.09534394058531
N         1.13569520424916   -0.93158401707049    9.91142499379630
C        -4.06256635379934    3.90750369064042    3.73933406604475
C        -4.33351301781013    4.52526275760393    4.98867404644202
H        -4.79369995299130    5.50843095414786    5.00221398241415
C        -4.03899199161763    3.88744149105773    6.19725473650076
H        -4.27924033351552    4.37043368574760    7.13872193521791
C        -3.50866325267254    2.56447273924844    6.21282700158127
C        -3.27448040934453    1.93240581731252    4.98384629373142
H        -2.96359663488930    0.89385070730713    4.96484114337281
C        -3.51021225641703    2.61182200580607    3.76203256738257
H        -3.35081863551945    2.07821614647072    2.83198260774680
C        -4.42279246310964    4.59262828189266    2.44344298477123
H        -4.71867866221312    5.62122754046291    2.67585145409898
C        -3.22211463984552    4.65338735832638    1.49742894702948
H        -3.47438407841716    5.24030489350367    0.61767533038552
H        -2.92459945025926    3.65791788321704    1.17478449013896
H        -2.38115668227079    5.12848059260937    2.00392792940643
C        -5.60932789803162    3.87889857680989    1.78784687467372
H        -6.45969639032716    3.84233357824069    2.46588999933374
H        -5.34429187250486    2.86053777661553    1.51131862500521
H        -5.90930464513121    4.41119072413073    0.88888989283341
C        -3.24881043179034    1.87767619620006    7.51560266055762
H        -3.07814332451467    0.81294236721901    7.37400909748891
H        -4.08592510143979    2.02040634427680    8.19745648179500
H        -2.36031851832717    2.31108932412169    7.98245036044325
C         1.06044290060052    5.84923447530912    3.28547805130853
C         1.41501017360547    6.74707903079542    2.28598476163720
H         1.21772470614824    6.49522380537434    1.25594609367519
C         2.00398108147780    7.94862338873042    2.62306193606733
H         2.27880623879639    8.65611234117865    1.85533562217248
C         2.23750820270100    8.25469510886628    3.96399462171728
C         1.87861271099243    7.34680319276401    4.96080371545039
H         2.04996246067384    7.59032211755739    5.99809178227964
C         1.29583645215726    6.14273920752513    4.62042478311329
H         0.99418262544851    5.44321031194371    5.38792139768255
C         2.83965126367480    9.48624378861253    4.30966156383263
C         0.32207916912126    2.16384511413747    1.68488940517978
C         1.18393417595415    1.10097635494777    1.92051523607997
H         1.14790632951569    0.58286192229071    2.86667698152860
C         2.07917711434297    0.71548460046153    0.94193704749716
H         2.75445119509096   -0.10887641065992    1.11458345127172
C         2.11439374171763    1.39740500667166   -0.27421914590159
C         1.24894854516628    2.46815416877841   -0.50259732457833
H         1.28434185532794    2.99354400901731   -1.44501131646862
C         0.35587518398821    2.85025534020090    0.47798078018305
H        -0.31876498153618    3.67815354813727    0.32689618362031
C         3.02829163010490    1.00112300780985   -1.27912650643774
C         1.08072973411092    2.18191082065884    5.59406039832366
C         2.06393681536668    2.37433253599110    6.55805790692778
H         2.78245760971889    3.16700248884892    6.42510314655654
C         2.08767273818120    1.57000788116434    7.67770643458374
H         2.83616368820897    1.71947492677262    8.44071809150068
C         1.13083846611776    0.56592201695104    7.83532734969564
C         0.15914110931038    0.36528621374130    6.85537272168121
H        -0.57060964738557   -0.42116466837432    6.98042637955961
C         0.13944174255848    1.17109801016223    5.73551782095125
H        -0.59607314960039    1.03335234901775    4.95565827505323
C         1.13929614578641   -0.25569447369649    8.98569368204285

