79
CSD_code = LOPDAY | q = 0 | S = 0 | Stoichiometry = C28H26Cl2F15O3PRuS3 | MND = 9
Ru       -1.39961707255447    1.52464010396343    9.92066674637903
Cl       -0.47958188697930    2.45993500228001    7.96536110850466
Cl       -0.06217342110336   -0.37240115715954    9.58499369238230
S         5.08201856962103    2.28799933332215    5.55968943347338
S         3.66812015790294    7.50464131085025   14.38485453003567
S        -0.82633810461342   -3.31327515861902   14.46250629104512
P         0.40871856227893    2.43771353403573   10.90079544071075
F         5.78630483519362    0.97826124630540    6.29861875183947
F         4.01085891300159    1.27764848909287    4.80442154776690
F         6.08356866218571    2.03110125061118    4.32046780597643
F         4.48247758282882    3.57804367872022    4.70700899965402
F         6.25815236088287    3.27383112369611    6.19824620252868
F         4.87351555258864    6.38214253608772   14.55934376137519
F         4.27678452031007    7.93607063798042   12.90463175915705
F         4.66700009496118    8.58340110464669   15.03607582380615
F         2.54531495949025    8.72052477882892   14.26798707935564
F         3.14253640515814    7.16756825886348   15.92154698960694
F        -0.89756531138823   -2.57960519385086   15.95106389727653
F        -2.37291786415777   -2.76586972811089   14.14430395789589
F        -1.51171940145070   -4.59989435211814   15.14512450584841
F        -0.84092708576097   -4.14933327859704   13.03397168976432
F         0.64091274267462   -3.97119658021563   14.84331043507075
O         1.54280712432669    3.32166109882099   10.21602139466843
O        -0.07016598551493    3.54617127580603   11.98532619729626
O         1.40999157718242    1.47108473575952   11.75756122094879
C        -3.29434181247241    2.81514625321494    9.88794710217778
C        -3.03102049482618    2.43716583477039   11.22123234944904
H        -2.97978813167570    3.19813521314811   11.99167769122286
C        -2.97857724693377    1.07291834789907   11.60577562664909
H        -2.91056954970580    0.81070957257818   12.65403193412806
C        -3.09401092613279    0.05335226298583   10.65055698485604
C        -3.29201080087387    0.43046920983178    9.29007807792986
H        -3.42822836962167   -0.34485869071850    8.54323284543314
C        -3.42485240028982    1.77685027120413    8.92970934443982
H        -3.65312571443311    2.03367338929277    7.89987027416601
C        -3.49906116358797    4.25828090896441    9.49582519443360
H        -3.62664853534652    4.29835820745511    8.40913666480846
C        -2.27619653764428    5.10438252014149    9.85609550863295
H        -1.38572434139149    4.66570019231055    9.40434878698199
H        -2.14035503917343    5.15564546944475   10.93397656172761
H        -2.40212732827164    6.11406465411344    9.47383712435113
C        -4.76842983359449    4.80644832855272   10.15539469816770
H        -4.66999938834951    4.81986523205859   11.23837516955517
H        -5.63114097344703    4.19729316041326    9.89431490726909
H        -4.95036762731798    5.82248544573172    9.81575297401723
C        -3.04321529474664   -1.39135265050383   11.02593866421707
H        -3.86569048360596   -1.93207931151147   10.56031441344979
H        -3.08536286314667   -1.53156989119477   12.10234840891722
H        -2.11284784034690   -1.83401633208158   10.66314188502982
C         2.32260394964953    3.02611442185607    9.12425637380490
C         2.49011434481595    1.73352400688663    8.64746593296046
H         1.95719696289880    0.91268510834094    9.10780268422340
C         3.31448027188198    1.51057917835938    7.55557150936506
H         3.44998567393381    0.51955644232788    7.15719861004024
C         3.95582815517907    2.58532852462185    6.98479621070096
C         3.80794464520004    3.87520180870443    7.44107770957238
H         4.32713389204568    4.68489212239869    6.95749386059896
C         2.97726961772708    4.09876363554220    8.52630385354548
H         2.82980459421846    5.09332784566231    8.91475839947583
C         0.82121501709997    4.44550449924460   12.53300058904134
C         0.95551056461236    5.70185849426689   11.95185884962178
H         0.39026560694616    5.93348156315967   11.06314305289767
C         1.81516737179388    6.63099200928228   12.51391170254584
H         1.93983040587349    7.61125368682931   12.08541076866731
C         2.52081777622211    6.27336943997405   13.64033918338759
C         2.41016828317442    5.03628881938646   14.23137251979029
H         2.98667590720126    4.80250067203478   15.11057165037390
C         1.54783319983585    4.10773200941881   13.66854869798949
H         1.44195697891855    3.12716764066313   14.10502226261292
C         0.92741659406047    0.37858539085248   12.42179005315373
C        -0.15234747453361    0.50827873032875   13.28892154267064
H        -0.58253816019303    1.48452894138977   13.45453771740288
C        -0.65760620550151   -0.60990305434174   13.93356895822305
H        -1.49042359561244   -0.54087269188478   14.61303062240084
C        -0.07341518383970   -1.82802034014987   13.68095556208297
C         1.01333507248410   -1.98208382801491   12.84885150667760
H         1.43447097801228   -2.95875484242480   12.68229373200325
C         1.52601975856554   -0.86175164050523   12.21688422057960
H         2.35830120651798   -0.94106024268247   11.53744920948680

