43
CSD_code = LOPFUS | q = 0 | S = 0 | Stoichiometry = C10H23B9Pt | MND = 9
Pt        0.04165178210005    7.72906803149542    3.35942828520677
C         0.73189790059125    9.88843054980469    3.54760479511614
H         1.76052833767834    9.83449081311428    3.90996247753828
C         0.49946469308929    9.52600668799781    2.04476765811935
H         1.38211090657989    9.25192019881566    1.46355372261991
C         0.07366010741587    5.65981272827364    2.93549502925205
C         1.48509300123438    6.01687894636201    3.00308448633605
C         1.38050977666060    6.28704733968707    4.41074735559006
C        -0.04329802673086    5.92916386848380    4.39404124648749
C        -0.71536346349362    4.80770701836445    2.00101317036368
H        -0.49687022725050    3.75278932675528    2.18626625574139
H        -0.46554680980363    5.02999276292335    0.96514431517711
H        -1.78161983857487    4.96746865712980    2.14628719310930
C         2.62197088174988    5.92165272102944    2.04437986915112
H         3.04829533532752    4.91542676413978    2.07629418444009
H         3.41405862698977    6.62586702101407    2.29784310803184
H         2.29085919050474    6.11024376570830    1.02397887394205
C         2.36711079558828    6.52533323724722    5.50149282932775
H         2.72321068096008    5.56874741541649    5.89333938486193
H         1.91200688756389    7.07513426848573    6.32371777946888
H         3.23174291170757    7.08035004094904    5.13908381519978
C        -0.96120114201071    5.39549364133928    5.44048822226841
H        -0.71306166573092    4.35308188629690    5.65524773685075
H        -1.99352417085361    5.43957047094945    5.10029221565722
H        -0.87130615252401    5.96675445058416    6.36220852905198
B        -0.59043254185697    9.48863827676110    4.52589720172422
H        -0.40306247356273    9.24104769997023    5.67075107382112
B        -0.25532989459967   11.17935738473250    4.05780671732156
H         0.16395790280875   11.89758924165811    4.89085306067909
B         0.46973762666683   11.20115283241228    2.46081301813635
H         1.41402727671423   11.83587523224465    2.16093474025880
B        -1.01935302883285    8.82817515793142    1.77054571320546
H        -1.15273181103855    8.08861945099384    0.85341626712047
B        -1.85816671940527    8.82451619335895    3.39097146791004
H        -2.73799158416386    8.09663421058103    3.70227096226259
B        -1.90012479388147   10.52722068019847    3.92581482780294
H        -2.76818242014792   10.89006666896142    4.63405110518146
B        -1.24645949397010   11.58221316604315    2.63653831415185
H        -1.65270460299551   12.66828834635503    2.43897800816154
B        -0.68046538298312   10.52364311419194    1.32390867432121
H        -0.56896737145502   10.76730846195195    0.17767462218841
B        -2.16938710499651   10.11347931086270    2.19722915620261
H        -3.22704390107088   10.18484195842341    1.68438253064022

