109
CSD_code = LOPHEE | q = 0 | S = 0 | Stoichiometry = C49H50CuN2O2P3S2 | MND = 4
Cu        2.01554749257456    0.40862675996221    5.50391149588553
S         0.63906542076809   -0.39871140607962    7.11722618043361
S         3.05485645260219    2.52653558748912    5.73351337631624
P         1.05196594613490    1.33772875025953    7.96186970351969
P         1.10535638315876    0.37001735638267    3.44109799528831
P         3.87927320906616   -0.98168792544050    5.89259600189163
N         2.61053699507933    1.73315911616739    8.26239591639504
N         4.70266624879198    2.54104666069023    7.71186702653586
H         5.23744462600795    2.90525931284911    6.93237176660979
O         0.17496144993550    2.44278993855939    7.24404430399005
O         0.42205630527144    1.34706579147507    9.42651012740046
C         3.43367353196248    2.20499780467022    7.37076803715778
C         5.37022217917042    2.49710338917513    8.92763664572271
C         4.76276681587800    2.14263789098941   10.12852807274096
H         3.72154329567384    1.87463484117026   10.13283740502617
C         5.49836267558438    2.12868762411211   11.29831718357641
H         5.01263308307904    1.85300805246028   12.22310684875663
C         6.84138948899217    2.46347839548883   11.29502599986720
H         7.41014027329645    2.44933433981143   12.21259958375410
C         7.44997598611719    2.81989971941905   10.10253129303774
H         8.49711819689950    3.08549958962682   10.08674673281782
C         6.72376860534248    2.83923375672615    8.92907019785607
H         7.20157158422763    3.11917808988720    8.00017790578107
C         0.23723450442344    3.87317759088548    7.37112550539002
H         0.94252550279147    4.22677043218192    6.60605033872994
C        -1.16639913756166    4.38033765782048    7.06574489159445
H        -1.51332529028153    3.98154818361231    6.11650319169345
H        -1.16327953489282    5.46611257528634    7.01789275492282
H        -1.85159506948476    4.05687759399445    7.84602435567705
C         0.69672537903626    4.32469831488999    8.74656034700607
H         0.00919483505801    3.95706125415718    9.50522783910172
H         0.72458839265852    5.41151324056127    8.78004187036943
H         1.69155679348276    3.94151087679327    8.96085408574581
C         0.98241487182890    0.52237853593999   10.44995842088510
H         1.97820312909427    0.19505039711314   10.12513924991237
C         1.10666272552133    1.37052244068522   11.70924639088934
H         1.72993329047263    2.24049572878390   11.51687228034018
H         1.55277442266411    0.78376810959438   12.50771797965354
H         0.12233678592284    1.71050194510793   12.02286963633524
C         0.08849551238878   -0.69078181048210   10.66664727512675
H        -0.90446767916758   -0.36855474056173   10.97144713390421
H         0.51028725684527   -1.33061221570645   11.43745686925508
H         0.00095926191623   -1.25540085100165    9.74143131610458
C        -0.23559581174219   -0.72548959274557    2.86613637245103
C        -0.97015691377449   -1.40655375823262    3.83135901791931
H        -0.72516088002293   -1.27741536081757    4.87806593071537
C        -2.00309106247782   -2.24432443292919    3.44768703322406
H        -2.57055429424836   -2.77537430321502    4.19775692884087
C        -2.30692135661042   -2.39896985429730    2.10572152745539
H        -3.11261075228583   -3.05308655822944    1.80528102670571
C        -1.58121073322238   -1.71241617142876    1.14349359790455
H        -1.82404233514844   -1.83155115486527    0.09726113604839
C        -0.54840283119493   -0.87454066040899    1.51841902125230
H         0.01909328986953   -0.33818382956941    0.77110741916928
C         0.59146913388130    1.96384271312225    2.72639966215760
C        -0.10040420431364    2.81185590285808    3.58604281162159
H        -0.26481445831555    2.49300767733707    4.60810594803059
C        -0.54461342566225    4.04190582247104    3.13857423421825
H        -1.07461497349720    4.70651179190008    3.80558283434477
C        -0.29929742725305    4.42907831921233    1.83134843674317
H        -0.64193281782334    5.39156173075522    1.48019892364667
C         0.39414193109627    3.58877416036482    0.97513839044541
H         0.59002065754439    3.89710522070177   -0.04192923158712
C         0.84277793103810    2.35768831416865    1.41679091741660
H         1.40140607156993    1.71351925727848    0.75179632172535
C         2.52556456981358   -0.09076434565271    2.42141219656968
C         2.69249761280366   -1.36552440924529    1.88940766466332
H         1.91545392976898   -2.10781979278152    2.00898669322536
C         3.84981310614287   -1.67788743795243    1.19985979063940
H         3.97496192872447   -2.66787392378654    0.78542757598635
C         4.84241342469088   -0.72673188042734    1.03436297195520
H         5.73889480071296   -0.97125055108662    0.48413812739946
C         4.68936216465084    0.53721936423646    1.58218876598849
H         5.46733305413031    1.27625635885605    1.46135553368090
C         3.54529235113140    0.85082838853141    2.28829710493607
H         3.42596179301052    1.82420524821854    2.74599941029524
C         5.33715300118968   -0.88259056127004    4.80674392131666
C         5.90019621568971    0.38240093202087    4.64741368577234
H         5.42892008963927    1.22973853288193    5.12775663930493
C         7.02753600249720    0.55190200558640    3.86759241148587
H         7.46749271330985    1.53294464881199    3.75865679083735
C         7.58697376636528   -0.53666702801993    3.21788747305909
H         8.46928333718727   -0.40779795035694    2.60799358894998
C         7.00406936953454   -1.78698574616033    3.33798851033157
H         7.42899677377559   -2.63260982168557    2.81644839376536
C         5.88221532154766   -1.96484955085466    4.12768457770912
H         5.43280877861909   -2.94317080761508    4.21695927177925
C         3.34383752076310   -2.71100638882063    5.70594126722556
C         2.19382648605215   -2.94118246413748    4.96122590907360
H         1.65721713981759   -2.09188279387079    4.55406023147374
C         1.73257396350690   -4.22944897132581    4.76589584078093
H         0.83398574338630   -4.39889809505148    4.19030410325244
C         2.42073571110110   -5.29649457018419    5.31935690498178
H         2.06294413918501   -6.30531374515698    5.17350745407161
C         3.56539299310647   -5.07207382442049    6.06903804571460
H         4.09764010988334   -5.90618708305016    6.50352502461379
C         4.02981393896281   -3.78474479555894    6.26618888828026
H         4.91949926934276   -3.60838540747668    6.85560840429574
C         4.63296410036434   -1.02812583335067    7.54988522285177
C         5.92299666938155   -0.59263334267578    7.83070920670351
H         6.56509945984031   -0.24727180916717    7.03237066862283
C         6.38964123454276   -0.61503746420278    9.13279729174327
H         7.39486612427540   -0.28247058077291    9.34672669978301
C         5.57269384934097   -1.05220163762449   10.16110887853670
H         5.94260027963175   -1.06250249810869   11.17552795865598
C         4.27962788702793   -1.46974587884748    9.88752985686520
H         3.63828283585293   -1.80775447626846   10.68921211747119
C         3.80809260359304   -1.45671837086042    8.58960050026894
H         2.79896690063074   -1.77863557040185    8.36531863232532

