60
CSD_code = LOPJEF | q = 0 | S = 0 | Stoichiometry = C24H32N2OTi | MND = 9
Ti        8.68069638808506   -0.83415760174912    2.71762158177597
O         8.63494495875553   -0.15904303727065    4.30458666374044
C         6.82791435794910   -1.53631703414571    2.03963689111365
H         6.48763846521277   -0.98282370199742    1.15564161179151
H         6.03047695854909   -1.43809809967979    2.78958684883096
H         6.86374613772969   -2.59564427533567    1.75383654916509
C         9.02254300893703   -2.73985635194545    3.54646946738183
H         9.86269596542994   -2.67356881534696    4.24797184131078
H         9.26724882208047   -3.49260061806218    2.79181177884388
H         8.16646969147368   -3.12764496217751    4.11043151152066
C         8.05145355634814    0.87231117957195    4.98292438923739
C         9.12164439635171    1.71721789965927    5.70550896166195
H         9.73990815422749    2.23155718215913    4.97313722653168
H         9.74933000228405    1.04345815129970    6.28570039555123
H         8.65633873512968    2.43414468119758    6.37337633077791
N         7.15643362791040    1.24656043623608    2.77683723726780
C         6.41531245593213    1.90616417178359    1.89551550815070
H         6.34720160191892    1.46767755486470    0.90872301170488
C         5.75034825765425    3.08374302755672    2.18989718226964
H         5.16371257810468    3.58579395637451    1.43621592205780
C         5.85360443817203    3.59467780411152    3.47617613796421
H         5.34959524762308    4.51087174212462    3.74757112691882
C         6.60491373940358    2.90303139505340    4.40699790594453
H         6.68484530042733    3.24120482965002    5.42693770659314
C         7.24294391552486    1.72999440124422    4.01016093707342
N         6.61297900888656    1.23660713587483    6.92226707811318
C         5.59818834119211   -1.33806497393135    6.85523074032430
H         5.20156205896679   -2.34294595996841    6.82712740388852
C         5.17124052675506   -0.43730592804217    7.81976281091488
H         4.43925713649732   -0.71569003112338    8.56186510648045
C         5.71234643334953    0.83759402292715    7.80370194313343
H         5.41454349446861    1.58277291898761    8.53069439414680
C         6.54053602727506   -0.92990654357346    5.92748970192172
H         6.91695814478271   -1.58426325942639    5.15134755181789
C         7.02555346794141    0.37108240227279    6.00543996448005
C        10.82818782963145    0.06299461352080    2.24330090065063
C        10.78243787471409   -1.26329604083827    1.73776664451731
C         9.81895204427819   -1.29640469102136    0.69517766210639
C         9.28202176895429    0.00702266783366    0.55124895245310
C         9.90792724868786    0.84979979663733    1.51352082093417
C        11.80276802966185    0.54075498822579    3.28381830528061
H        11.61845251921256    0.05895460347451    4.24758854634640
H        11.73303340908837    1.61878389600320    3.41700584433847
H        12.82490694357860    0.30386097903769    2.97861951535732
C        11.80573181342423   -2.31904169724195    2.04715732959019
H        11.46664675668918   -3.30788494031454    1.74566027542263
H        12.04520049961330   -2.34241252222084    3.10968777606066
H        12.72881241714038   -2.10322517091052    1.50056932156994
C         9.55663880500007   -2.44151928916380   -0.24238304853821
H         9.74073460589326   -3.39989142028936    0.24165456568391
H        10.21248030759873   -2.37519587981546   -1.11553499181484
H         8.52574007872896   -2.42869135994765   -0.59539392709759
C         8.46456227347271    0.44125304272420   -0.63494491222637
H         8.19225445532544    1.49262937771258   -0.56854363502580
H         7.55375458320408   -0.14990793153851   -0.74574072548531
H         9.05077636330336    0.30854694670842   -1.54852327819598
C         9.81233966517497    2.34938621241756    1.59292750603906
H         8.96304164940530    2.72660909857225    1.02598849715549
H        10.71822728782280    2.80262905086803    1.17979069670553
H         9.70504536906987    2.69591197033878    2.62227993775445

