50
CSD_code = LOPMOV | q = 0 | S = 0 | Stoichiometry = C22H23IN2RuS | MND = 9
I         2.84551145151824    4.33521708438270   10.32541410697021
Ru        4.06703726950132    6.17651613169871   11.87614446468242
S         5.96406013758914    3.84650985139878   13.59722929985348
N         2.41240676529276    5.20819406629533   14.08817980341445
N         1.15956627629113    6.56083815599940   12.92159573048427
C         5.65794466573454    6.21977002177446    8.72825657172771
H         6.25295559473021    5.31511727621984    8.83621441864829
H         6.21871913596520    6.93419532576169    8.12174504634069
H         4.74265694136211    5.96655652428452    8.19529800352857
C         5.35624361083822    6.82794576110025   10.06557834334734
C         6.17861787179287    6.58225922615811   11.17194713629488
H         7.04750732449937    5.94062093314045   11.07196019549041
C         5.91183451959346    7.21341780709378   12.41311038055830
H         6.59616144993769    7.04999183822156   13.23850755023239
C         4.85162887894328    8.13902050028507   12.54956902340128
C         4.05185945412679    8.41577118551709   11.40300567231888
H         3.29919512091477    9.19714848232054   11.45989547796713
C         4.29132432545633    7.76689676566395   10.18982058210432
H         3.70972954856954    8.02143352427447    9.30871686954164
C         5.71195354379436   10.07213104945105   13.83688429224455
H         6.71713603280849    9.65503607525712   13.86356173866991
H         5.57358430177144   10.69339389493526   14.71857715392948
H         5.62412850082547   10.70206805851047   12.95287942889138
C         4.66644633587166    8.95085833880825   13.81117690263062
H         3.66962465401373    9.41019315744791   13.77858809057296
C         4.75380529728523    8.10110979406798   15.07999629202628
H         4.08979925752167    7.23978321126046   15.00949507299165
H         4.46173780298560    8.69399426167244   15.94395707410865
H         5.76677171383566    7.74067154707579   15.24551983787810
C         2.40833482750981    6.04828060695710   13.01921055771374
C         1.17817131228296    5.18603238224106   14.68980346810627
C         0.66152811844138    4.51650241000658   15.78902163133781
H         1.26279135717344    3.83647524757509   16.36880281109424
C        -0.66222739767383    4.74837711888093   16.11149992375097
H        -1.09379101877042    4.24070799468080   16.96046943751781
C        -1.45541491519191    5.61900821960725   15.36757432774397
H        -2.48473333117036    5.76949522210302   15.65465590710459
C        -0.95361911507114    6.29081756070579   14.26849807398331
H        -1.57098989524900    6.96202481595989   13.69254967502471
C         0.37185686088059    6.06310412998162   13.93610520195532
C         0.67817295046976    7.39095958964070   11.85347746479864
H         0.53751748808321    8.42180535279603   12.18888569283955
H        -0.27238127146933    7.00167812071815   11.48742059572359
H         1.40063447293016    7.36549040193514   11.03681293435223
C         3.60608990011642    4.49785151959870   14.26185014457106
C         4.52574046374666    4.75513240113923   13.27143042769916
C         5.28916027253300    3.16321733806041   15.03516196897679
H         5.87729831013792    2.47917544146454   15.61227852829713
C         4.02626049716168    3.59852509161176   15.26941673123014
H         3.43445232976647    3.29067918425907   16.11134993531850

