103
CSD_code = LOPNUA | q = 0 | S = 0 | Stoichiometry = C34H65ClNPTi | MND = 8
Ti        2.55665932683697   -0.11534298677467    3.21837662245211
Cl        3.68146208927732    1.74351046874777    3.62812324340946
P         2.09507905497392   -0.66525314466166    6.43870824191539
N         2.13592580617439   -0.60267237213741    4.88832638000202
C         1.79377086982993   -0.84022440642293    1.11484925645031
C         2.12394405792713    0.53093192199356    0.98100860230793
C         1.25144206877674    1.27674158901561    1.81157688927158
C         0.36436410290593    0.37535531022887    2.45605539086552
C         0.71952454997603   -0.93978159479494    2.05168109206195
C         2.18527957679267   -1.96046325183373    0.19227190497777
H         1.38343896589786   -2.12252656507763   -0.53446936162514
H         2.33593980141058   -2.89863966774027    0.72648939719569
H         3.09209910829998   -1.73203606818252   -0.36388342200176
C         3.11152347031363    1.14930905091683    0.03371825077068
H         2.59564281205571    1.81257465239006   -0.66478445676269
H         3.63197624387601    0.39042373104368   -0.54751001716405
H         3.85540518144099    1.73965080548262    0.57267371678640
C         1.16052539591100    2.77518553984185    1.85541292583090
H         0.41437244898118    3.12814229059601    1.13713880652537
H         2.11716938777370    3.23093539660119    1.60328352400559
H         0.86930516153005    3.12837704246987    2.84585600414642
C        -0.91569621266204    0.77164289299164    3.13468864389439
H        -1.70461279082281    0.86423088932392    2.38185810456801
H        -0.82538636309443    1.73251098452827    3.63787855970315
H        -1.24132608162818    0.02751643818814    3.85906368922353
C        -0.06183273747628   -2.19412550826859    2.32215076619309
H        -0.76261540295467   -2.38482389167848    1.50382083569270
H        -0.63599480140584   -2.11023317561426    3.24335524089277
H         0.59642168358464   -3.06028988868480    2.40583347981114
C         3.99451821466311   -1.62870860513570    3.00457715787402
H         4.43378462272964   -1.86056375136534    3.98262603801566
H         3.44314564034918   -2.52631162142307    2.68710306520919
C         5.15731087927521   -1.37043078718770    2.04318573213621
H         4.77679974659713   -1.22541849440120    1.02412009184809
C         5.88636417180294   -0.12433692142562    2.46766938535293
H         6.06561758903467   -0.03962549139785    3.53157688236159
C         6.33286996991073    0.80214060041372    1.63415454012311
H         6.15244091717097    0.68970596359451    0.57001219226580
C         7.10376762437566    2.05079812275161    1.98022288114131
C         7.35598171808914    2.18950550020168    3.48067339531462
H         7.90198540245884    3.10935477325976    3.68021117018970
H         7.94585754010050    1.35505166370412    3.85362051571335
H         6.41084935085004    2.22568734306111    4.01626045112977
C         8.44580429096912    2.00349904352359    1.23597946380500
H         9.01742536219408    2.90961005406551    1.42624892778610
H         8.28920597351915    1.91599476147193    0.16250344255019
H         9.03411021362039    1.14969350522816    1.56733856720303
C         6.29672244006946    3.26306154036091    1.49817115024096
H         6.84148876538341    4.18467998324206    1.69303898742511
H         5.34813660205780    3.30365977711425    2.02896687145231
H         6.10274674279414    3.19931051987642    0.42866759381667
C         6.17233454906701   -2.56482856780665    1.94739120426081
C         5.43894149027546   -3.87562162898116    1.64415404868844
H         6.16056921425583   -4.65841169446327    1.41626688129496
H         4.78249561527324   -3.76137267529201    0.78379974555570
H         4.84867311055309   -4.20548950084748    2.49550962358863
C         7.14844817834990   -2.29081028838867    0.79851513099116
H         7.88493532312143   -3.08934788581330    0.72944129362882
H         7.67338330832012   -1.35239726156984    0.95618100006681
H         6.61960107233435   -2.23440646803245   -0.15109614383743
C         6.97605399952272   -2.73443170190723    3.23917649116984
H         7.62123858271362   -3.60797790879787    3.16061523223897
H         6.32030510629218   -2.87616970868720    4.09479148971382
H         7.60233189082253   -1.86474414255569    3.41949049493875
C         3.80101594160733   -1.19479162178491    7.18490557555378
C         3.94647273126634   -1.05406088146794    8.69792526117334
H         4.91270128116615   -1.46292310082662    8.99597992620532
H         3.17321325690911   -1.60017776704566    9.22964210539471
H         3.91750553718198   -0.01687733158763    9.01733478681807
C         4.00073545367775   -2.66513100574440    6.81198915070337
H         5.04478631776018   -2.94565351216825    6.95605365591133
H         3.73936924779441   -2.82427040126241    5.76733882351397
H         3.40218643347211   -3.32139496006824    7.43714354916495
C         4.88355024040315   -0.38078609386335    6.46583591745330
H         5.79828197963746   -0.96668016598960    6.37704579383377
H         5.13515532060387    0.52936045877829    7.00072938291693
H         4.54403262391294   -0.11348277734817    5.46082155754226
C         1.61792185717327    1.05432456623033    7.17783720807744
C         1.04379715739942    1.03639312973088    8.59146365848097
H         0.90833534369978    2.06439007093880    8.92966732779117
H         1.71441382308779    0.54134236219387    9.28790573016118
H         0.07418577019436    0.54842561901434    8.63565038982034
C         0.63276444417599    1.68406278558843    6.19365362248097
H         0.52840830656532    2.74795397386830    6.40598744091097
H        -0.35435578926886    1.23663583982801    6.24305874692730
H         1.03405432622596    1.56719371925527    5.18134986008976
C         2.86023764019304    1.94631931776864    7.15432155125807
H         2.56391380639854    2.97747118363175    7.34967383238200
H         3.32978977704671    1.91439535874344    6.17233614498004
H         3.58084225088317    1.66999189493447    7.91675614472621
C         0.76803008560363   -1.99243246435141    6.90607624969453
C         0.96792156232827   -3.16998189065038    5.94627935273274
H         0.02878051163035   -3.70601887167605    5.81205437318673
H         1.69877172172709   -3.88366607437604    6.31102292197889
H         1.29332577894264   -2.78922927495202    4.97439760410974
C         0.73849976730878   -2.47895626219256    8.35016603239626
H        -0.12394854914374   -3.13350095674341    8.48392133213294
H         0.64541945503795   -1.65515896420190    9.05145698428820
H         1.62552865166686   -3.05341848200983    8.60223246019846
C        -0.58290470283667   -1.37256826471473    6.55142366566974
H        -1.35832453041309   -2.13971303389806    6.54679410432123
H        -0.51758754417917   -0.93884163497465    5.55537123012777
H        -0.88557927977237   -0.60931901543656    7.26197923806748

