50
CSD_code = LOPPAK | q = 0 | S = 0 | Stoichiometry = C21H25IN2Ru | MND = 9
I         3.13335899278890   13.63675382282366   17.69792363959630
Ru        4.98418068189125   11.71369137964409   18.07528601501854
N         5.86656046298385   12.38109553281227   15.15274936353694
N         4.51900898754788   10.71510627022981   15.37624857349260
C         6.12797547165696   13.06109214135953   19.68979444538692
C         7.07082116841528   12.53387634869813   18.81205349972638
H         7.84325159200027   13.17207125600417   18.39632239608965
C         7.05403830778553   11.14784069466774   18.48860593396573
H         7.83425730613679   10.75985873475281   17.84005567096158
C         6.19911267366299   10.24410568223371   19.17009400557571
C         5.27655462114070   10.79129036346059   20.10433948757783
H         4.66551889107952   10.12106916770470   20.70059979818948
C         5.19443092190455   12.17086900324620   20.30458226207155
H         4.49859229820377   12.57285921012614   21.03597222859789
C         6.11184938640632   14.51459638886019   20.05685429230794
H         6.90253235576656   15.05835809695514   19.54306084361567
H         6.24728779444140   14.63059883325229   21.13286848122975
H         5.15447821047712   14.96682899674784   19.79282591404209
C         6.37109425266614    8.74602327783371   19.07275002841864
H         5.45272534298784    8.27533214053893   19.44430324070116
C         7.53397667293339    8.32470682335643   19.97927050063409
H         8.46667535969666    8.76738076183178   19.63336960742322
H         7.64331483058216    7.24277845031153   19.97249408355160
H         7.36027367997955    8.64767562347531   21.00427856892199
C         6.59644859973639    8.25708885626005   17.64222824927362
H         5.79678358238709    8.61167831166549   16.99422811250857
H         6.59887200737351    7.16976563110538   17.62154317356863
H         7.54983925355076    8.60263925978335   17.24838006666841
C         5.20008543215435   11.65556106849206   16.07501904250479
C         6.64924224768272   13.55338767041334   15.42685064913183
H         6.30561538879865   13.99288452504001   16.36485953271304
H         6.51313880865415   14.28213175114599   14.62858618625480
H         7.71185686169637   13.30877642683196   15.50732407182035
C         5.61368315970328   11.88376464573680   13.89808923573542
H         6.04757425443677   12.31287502367813   13.01834102735090
C         4.76483873380310   10.83719704995694   14.03738485480404
H         4.32606939284290   10.19933480244246   13.29890084381995
C         3.63293116159609    9.93057643206166   16.12569447119190
C         2.82909240721120    8.92823130189110   15.61413031340294
H         2.86486180099162    8.66815478242490   14.56636632131090
C         1.96539764581317    8.27161411882285   16.47355794396034
H         1.32924573858526    7.48657465384120   16.09177431523919
C         1.89047838354340    8.62887952078307   17.81292971827855
C         2.71493093179569    9.64292572349769   18.29727822830975
H         2.61491912237958    9.92687139179578   19.33809392489028
C         3.61795987790202   10.30006517457642   17.48007979726670
C         0.94111524370804    7.93275506202651   18.74204290881802
H         1.48349942320577    7.24487538932507   19.39225044804694
H         0.20058071695699    7.36324346372291   18.18599708306350
H         0.42676956034001    8.65468896174871   19.37346659942419

