83
CSD_code = LOPQEP | q = 0 | S = 0 | Stoichiometry = C38H32N6NiO4S2 | MND = 6
N        -2.27420265255355    0.92466923321182    4.91380203014316
N        -0.88789083072738   -0.63345605353745    3.31851994735966
N        -3.11801029949338    1.62753308821400    5.61024321799741
C        -1.33536273419327    0.20858876810258    5.48631694700677
C        -0.46900703948754   -0.53817637949609    4.59665430768182
C         0.75559455690871   -1.08728081241934    4.99689381518507
H         1.08491636993509   -0.97651270898439    6.01795549531190
C        -1.15470045515522    0.17315931625926    6.94809967498323
C        -0.12584777093416   -1.25172278171266    2.43140711689738
H        -0.50803471955119   -1.29267971801447    1.41969703781273
C         1.53704130537902   -1.73808028874488    4.06494224517622
H         2.48832713635115   -2.16226275682197    4.35141291540139
C         1.09122830835202   -1.82906743591247    2.75245052097415
H         1.67677912915909   -2.32701885625283    1.99674718123123
C        -0.99824683884121   -1.04768711857647    7.60297920261194
H        -1.02562566737959   -1.96493989947418    7.03234131385833
C        -0.98023982133387    1.29881294738764    9.06817422259955
H        -0.97336905500401    2.21566514959476    9.63918503336760
C        -1.15169703843820    1.34690212724927    7.69733541523152
H        -1.28040428184759    2.29496032088234    7.19899233612733
C        -0.83237842997038   -1.09037514628093    8.97491082715664
H        -0.71616217273504   -2.04265214399674    9.47197164879708
C        -0.81898825306803    0.08254933184321    9.71116320085846
H        -0.68768756923294    0.04795026432628   10.78262286322145
Ni       -2.41565307946056    0.92793354928176    3.10338903897398
S        -4.09391651321809    2.61511846052547    4.76193737954203
O        -4.11282346105270    2.23560684080183    3.34290567399460
O        -5.37845245246221    2.70120991083913    5.39206269355719
C        -3.34125077345440    4.24152313098317    4.84369388262279
C        -2.23514012265568    6.78457336761142    4.80710150014321
C        -4.16137723321418    5.34537711153569    4.97172712593493
H        -5.22211163093764    5.18891978678647    5.08786993403061
C        -3.60662033109718    6.61333520211268    4.95541504994595
H        -4.24563359884671    7.47865396173340    5.05909955922710
C        -1.42767919461474    5.65837369008743    4.68517046615140
H        -0.36058459119778    5.77790389728958    4.56902660145565
C        -1.97458668886153    4.38784938389461    4.70466320636912
H        -1.34212985731831    3.52088103973651    4.59077593139849
C        -1.62205949388328    8.15086520561544    4.79454272330966
H        -2.38082771992000    8.92055021839896    4.68258419505250
H        -1.08919405836179    8.32866319120994    5.72839432942627
H        -0.90508458201414    8.23676684676785    3.98115701833524
N        -2.55714540223511    0.92469186144521    1.29298526047721
N        -3.94346744592306   -0.63339355194918    2.88829035503988
N        -1.71334864057083    1.62754523325129    0.59654582522956
C        -3.49596988767463    0.20858482742117    0.72046986413943
C        -4.36229876392108   -0.53821757967083    1.61012830929624
C        -5.58689815874826   -1.08733668459110    1.20989331348959
H        -5.91624782136787   -0.97653093477585    0.18884510628187
C        -3.67664272397447    0.17315084291700   -0.74131154646657
C        -4.70556200456074   -1.25156465798618    3.77543338181512
H        -4.32326431912044   -1.29270744182917    4.78709252973626
C        -6.36835936297732   -1.73810210483543    2.14186024524684
H        -7.31965088340481   -2.16227779637419    1.85539823910321
C        -5.92259137631557   -1.82899329259831    3.45437542453712
H        -6.50810002467836   -2.32700433905103    4.21006542250489
C        -3.83303553281433   -1.04769734047281   -1.39619580440576
H        -3.80573038783609   -1.96494688404872   -0.82554900929699
C        -3.85116037554343    1.29880043900560   -2.86138430169688
H        -3.85795476560500    2.21564703931513   -3.43240091657201
C        -3.67970225726548    1.34689229022685   -1.49054349385894
H        -3.55092048074725    2.29494660323528   -0.99221024677008
C        -3.99889320439304   -1.09038948056594   -2.76813089265071
H        -4.11520268318097   -2.04266522573010   -3.26517697565839
C        -4.01234856145957    0.08253462604331   -3.50437970799915
H        -4.14365904201954    0.04793191864922   -4.57583538652929
S        -0.73742405079103    2.61511476296618    1.44484875907687
O        -0.71851485135766    2.23560760585943    2.86388234241024
O         0.54711182910111    2.70119597660244    0.81472234909583
C        -1.49007395948616    4.24152442825549    1.36309894709024
C        -2.59617167603620    6.78457943195966    1.39971791664221
C        -0.66994354262203    5.34537342170519    1.23506087914672
H         0.39079064380713    5.18891089528690    1.11892206698752
C        -1.22469310876979    6.61333496618519    1.25139293423934
H        -0.58567623813869    7.47865113613999    1.14770797982135
C        -3.40363633949012    5.65838242880596    1.52165157453451
H        -4.47073085046332    5.77791532021863    1.63779733030707
C        -2.85673366259106    4.38785625842808    1.50214871425219
H        -3.48919307467293    3.52088859091832    1.61602256353985
C        -3.20924851127550    8.15087380861891    1.41228167540819
H        -2.45047759567197    8.92055509818945    1.52424533193648
H        -3.74211342910874    8.32868115643261    0.47843120815250
H        -3.92622326962508    8.23677310434729    2.22566760597614

