63
CSD_code = LOPREO | q = 0 | S = 0 | Stoichiometry = C25H34CoN3 | MND = 4
Co        2.38036379334833    4.70529115798453    9.19134283468369
C         2.85842481345526    3.63747703215412   10.77037455283009
H         3.87236992496656    3.79691731701728   11.14887421263919
H         2.73459664211062    2.55784245717708   10.66473583860886
H         2.17035279096520    3.93977903447073   11.57248505653610
N         2.64898037155561    5.41061735946754    7.59357202458196
C         2.40035845302229    4.64117349260269    6.50159444926463
C         2.87534099007484    5.01408900852398    5.24880760153823
H         2.66194625683705    4.41078412437707    4.38043179455976
C         3.64792561442232    6.16392359022804    5.14394985918924
H         4.02943000815310    6.46935337307689    4.18131167196527
C         3.95901809407575    6.90562224922539    6.27629133105091
H         4.59753655298628    7.77150127844231    6.19594652126093
C         3.45078425196900    6.50568990890676    7.50948077059543
C         1.62885011401930    3.49676085734540    6.89052157312840
C         0.90618525956769    2.65889386124947    5.88219756228530
H         0.18753543532001    2.00421558080973    6.36953415889254
H         1.60938308980656    2.04983056465353    5.31446744729211
H         0.38190970330985    3.30426769694698    5.17782387421476
N         1.56205185086315    3.34496140299281    8.19429126971973
C         0.78513904832856    2.32736802168753    8.77289059818959
C         1.14014601381287    0.97473847765286    8.66216678067011
C         0.33361337937852    0.02599321450173    9.27604587437175
H         0.59464428328263   -1.01894022057074    9.20446973502671
C        -0.79800473787287    0.39229437520835    9.97685642099979
H        -1.42150231089363   -0.36340460997710   10.43174915457342
C        -1.11977841061080    1.73046985149496   10.11412266610775
H        -1.99335091773138    2.00633461003592   10.68298340455863
C        -0.33236342929605    2.71147057061600    9.53520725698118
C         2.40597441540484    0.53320344526707    7.96076375486159
H         2.85562037403506    1.39492683250977    7.46066422187229
C         3.41957832472066    0.02210787819386    8.98882835578586
H         3.67679159563154    0.81343527696808    9.68775805908709
H         4.32877438315716   -0.30312235349058    8.48730218291661
H         3.01376314326232   -0.81684605124805    9.54952954714002
C         2.13190385462631   -0.55018767264107    6.91385233894668
H         1.33077935074778   -0.25411225617999    6.24070632588661
H         1.84653718099914   -1.48548297607546    7.38877186569459
H         3.02875335447435   -0.73299647784589    6.32525811250892
C        -0.64362396353431    4.18121704175314    9.69422500602666
H         0.33413861756310    4.72022019011497    9.71021839780350
C        -1.36282194808676    4.51376784916499   10.99879364736132
H        -1.36383766371269    5.59133680335047   11.15050040717058
H        -0.85597520083799    4.05047895867496   11.84172288567410
H        -2.39715860337543    4.17648957180612   10.97998548103716
C        -1.45082453843484    4.68786676536605    8.49627477832524
H        -0.89907470713283    4.54816500659663    7.56979138542370
H        -1.67011345500803    5.74755852745140    8.60959722191033
H        -2.39251625619534    4.14583506359028    8.42189704658407
C         3.62030455967105    7.06936042480983    8.81733653064812
C         4.23268518397453    8.41958795312306    9.03199398345515
H         5.15646465818067    8.33941856367334    9.60713111322579
H         3.54678130380005    9.06701322853535    9.57769836756810
H         4.46237684519332    8.88567371913607    8.07917167776586
N         3.14989324906542    6.30414940691288    9.78005574477727
C         3.13175134283115    6.84039453930017   11.12245796982633
H         4.03781127732493    7.42505756882486   11.32937549643705
H         3.11853374825460    6.00624851161979   11.82944867909550
C         1.92623904549665    7.69614517499821   11.40506804639277
H         1.93546572899883    8.15250494581502   12.38698948912631
C         0.91111286406367    7.88652195561937   10.58390988188792
H         0.87906872558188    7.43494239018399    9.60500358979801
H         0.06895628004539    8.49940455582663   10.85759211166968

