87
CSD_code = LOPSOB | q = 0 | S = 0 | Stoichiometry = C33H36BF5N7O2PSW | MND = 7
W        16.98912743221805   13.10430654040516    8.72523227510243
S        17.61444231689017    9.69043158487871    9.86264874733788
P        21.04043141187395   10.48746229185539    8.94124206337353
F        22.22674646158367   11.13428926964369    9.83642922942106
F        21.78132139952934   10.97211194674636    7.57553687850700
F        19.83291305334741    9.84551276645390    8.03152580870591
F        20.26358154841444   10.02417401058377   10.31225290326514
F        21.80729675121288    9.08511242248925    8.89789139316631
B        13.69034041799633   12.99715428129897    8.87627507782682
N        20.12853535025539   12.06624843359025    8.98373646758884
N        15.55050994218923   11.94336938791118    7.57853746598519
N        14.22727238155162   12.02321940742800    7.82165171716759
N        15.65396760844151   12.79877253191187   10.40326036339159
N        14.32624358615382   12.67093070655909   10.23203041465163
N        15.49483862845766   14.65100169846617    8.26195025827668
N        14.18380951108036   14.40055598982576    8.46886512747222
O        18.52048530705435   15.44754838688426   10.13581596746757
O        18.74177594253163   13.70715502543610    6.20328590638051
C        17.78457232457544   11.25001380772920    9.26386770730124
C        18.82984249222768   12.07675050956890    9.04520242497347
C        15.76373499994712    9.52326564052247   10.02371312889521
H        15.51577600538873    9.78553654814335   11.05167384188917
H        15.31681411756394   10.23188730531795    9.33377421510274
C        15.36375641184908    8.12174564316484    9.70992195679726
C        15.07260067494897    7.74887932584057    8.40307687191732
H        15.12196710291567    8.48642232747697    7.61571247020767
C        14.72119066041721    6.44438448575245    8.10849057468449
H        14.49551875444525    6.16586644700665    7.08973739076260
C        14.66289095499785    5.49571392335369    9.11541822529547
H        14.39069482168563    4.47672202087719    8.88461643657412
C        14.95964984798833    5.85732926426809   10.41856429953958
H        14.92092095712167    5.12008541004515   11.20657790513222
C        15.30988506904885    7.16229288229352   10.71393585453815
H        15.54607745973922    7.44173483983008   11.73037590061431
C        20.88477671694698   13.29183852644785    8.89283941075483
H        20.40056875363109   13.97608699206175    8.18740803358633
H        21.87186633440647   13.03880180314851    8.49967548039429
C        21.05251391872396   13.98217813046629   10.22578763893238
C        21.51819753532239   15.29188997438361   10.24548107578252
H        21.75079669238852   15.78660090785645    9.31328748023156
C        21.68268005747892   15.96100352588570   11.44344795620146
H        22.04591050535830   16.97827933081194   11.44539656175069
C        21.38055801400809   15.32929227960684   12.63849418641170
H        21.50561141824970   15.85249079653646   13.57514874769627
C        20.92434744039544   14.02373037722844   12.62532445019847
H        20.69579040855297   13.52028082839878   13.55329207222506
C        20.76252612724566   13.35102842771254   11.42562385670491
H        20.42735858566821   12.32587025550981   11.42920988326238
C        17.98257016990375   14.54850425451437    9.66084079531611
C        18.04392037613558   13.49693936715500    7.09569546045811
C        15.73363620098088   11.07273316031320    6.58480658996210
C        14.48851059485579   10.57985067415934    6.18216829588124
H        14.29704728120263    9.86775049899939    5.40564761625896
C        13.55524855307584   11.20650635330721    6.98746987899744
C        17.06468074570880   10.70519995120874    6.03542609460521
H        17.43386571971410   11.48560905014603    5.36989152947490
H        16.98034008889246    9.78608034463322    5.46060456514823
H        17.80212339107775   10.55486347791075    6.82478243417812
C        12.07992371352666   11.04058813564985    6.99344545528025
H        11.73507373469166   10.69780035197530    7.96740152222463
H        11.79623597950753   10.30796692948853    6.24324907185482
H        11.58326754142159   11.98308475250004    6.77008313345671
C        15.92846539048039   12.55299541670343   11.68368345352783
C        14.73859584055271   12.25111759743478   12.35184710563739
H        14.62287031677163   12.00694145452150   13.38788988598308
C        13.74048074601221   12.33666199080045   11.39798871161569
C        17.30306430307247   12.60625908461641   12.24950860599326
H        17.92898662237090   11.81245228482702   11.83978091800342
H        17.25680241846316   12.48551426359150   13.32890018271733
H        17.78131559567217   13.56029271109769   12.02406562148787
C        12.28316684116915   12.10172589618826   11.55891523171848
H        11.71650151911275   13.00057749782053   11.32260700495416
H        12.07387670031290   11.81586624143938   12.58582950391898
H        11.94723962051275   11.30589299309487   10.89641587177092
C        15.60613693036755   15.92658980985656    7.87252258111317
C        14.33616609070877   16.50129031150973    7.83307306317729
H        14.09172324463256   17.50708285883804    7.56013587405154
C        13.45834728230779   15.50297419255521    8.21819150373101
C        16.88974716427580   16.60071537197771    7.54277831309069
H        17.31847309373234   17.06265660435530    8.43201539292456
H        16.70895263610125   17.38484735365313    6.81093813335500
H        17.61260528491838   15.89503882392954    7.14060256140875
C        11.98121419478800   15.57824803054850    8.34834330121538
H        11.49742585635117   14.88001768496282    7.66790738918144
H        11.64875115156069   16.58517220614269    8.11263894609772
H        11.67114112016227   15.33246354995946    9.36210268485777
H        12.51607173087425   12.95806924800181    8.93436161192561

