79
CSD_code = LOPTAL | q = 0 | S = 0 | Stoichiometry = C30H42AuO3PSSi | MND = 2
Au       11.28545780072470    5.47180774438012   10.44603328058832
S        11.74887538240320    3.33543770695507   11.18841236399398
Si       11.81360651433999    3.81974316690464   13.24338907871820
O        11.82554447092883    2.47352151533534   14.13174366801869
O        10.52389500698815    4.72024005703536   13.67780717948046
O        13.09626809394064    4.73195840710203   13.65974477343660
C        14.05261975482195    1.60748884954330   14.37047058499665
H        14.40282847331116    2.52942080518020   13.91489844286947
H        14.06597997649362    1.72904642843369   15.45118432862098
H        14.71262059927040    0.79312433293372   14.08662692994685
C        12.63135732094800    1.33891368713459   13.89460109510003
H        12.64290686716595    1.14933655791139   12.81273745331846
C        11.96900127501845    0.15892180323634   14.60891703382876
H        10.91785494385256    0.14517868191183   14.31302729639545
H        12.00934563373656    0.33446464488904   15.68600358232254
C        12.60907916505019   -1.18018046284549   14.26861731098820
H        12.04667948957377   -1.99074046665600   14.72675119888284
H        12.61760485218861   -1.33130521770666   13.19167394178631
H        13.63211182620741   -1.22778092086030   14.63221720780225
C         8.44077433847911    5.76239161635957   13.25001136735079
H         8.90633122091501    6.38584296872892   12.48674587760058
H         7.40300498473765    5.59902877246481   12.97448588912292
H         8.48521602882447    6.28387309781264   14.20336221871036
C         9.18604065389440    4.43456454385096   13.35241188988173
H         9.16131303627877    3.93276293579581   12.37187877241339
C         8.59285734914728    3.49479434031713   14.40341732563028
H         8.48819463045805    4.04087508491492   15.34336091196660
H         9.32419445413854    2.70043513973176   14.55940316892922
C         7.25723339969104    2.89381419826782   13.98798092470938
H         6.92157300502102    2.17872559998460   14.73532954891076
H         6.49362033850573    3.66175521450883   13.88625300990937
H         7.35523212124992    2.37609005245006   13.03641472173896
C        14.38197905800531    6.32025786093495   12.41928204817971
H        14.18959430485267    5.74373988246229   11.51662682730390
H        14.46256501162422    7.37390855231663   12.16075970288037
H        15.31924333996047    5.98052541454426   12.85248243863126
C        13.24298584611208    6.10452052383845   13.41363043522288
H        12.31060263275899    6.49398782853733   12.97493568056934
C        13.50006451951664    6.82552866200531   14.73840683481095
H        13.75495994951759    7.86653610219231   14.52505019724091
H        14.35526218708938    6.34971109269094   15.22149231755462
C        12.28646743344900    6.75171188948238   15.65425878592176
H        12.50348488312302    7.20078246068748   16.62145440661656
H        11.44199222578147    7.27011145670791   15.20499538170707
H        12.00234485345278    5.71327114181375   15.79857552866070
P        10.80806478880545    7.62791600593634    9.93563150645377
C        11.64479427568404    8.82403946356287   11.00561031135673
C        11.21964902946581    8.92254449186240   12.33009428156734
H        10.35300635831700    8.36167669179037   12.65553042959559
C        11.89940980752103    9.73628027598438   13.21517163754323
H        11.56334638364846    9.81894195093448   14.23780587041976
C        13.01789014788451   10.43800518005316   12.79220870651180
H        13.55185910539090   11.06986643612524   13.48613641438062
C        13.45616186851342   10.32438001067771   11.48311639234577
H        14.33318772909626   10.86437603349447   11.15786827333879
C        12.77746365013336    9.51582230700190   10.58878411126588
H        13.12152677832330    9.42085798343581    9.56794379451302
C         9.05221431247668    8.07774537595822   10.03821834742185
C         8.14044374862105    7.08629543691077    9.68543591199409
H         8.51050987925695    6.11162261964432    9.39196554408362
C         6.78380106772196    7.34600563346777    9.72640713617695
H         6.07891345674836    6.57471496078196    9.45477780864273
C         6.33192366772825    8.59424218308120   10.12449897269060
H         5.27220253314851    8.79727350630059   10.16257554363203
C         7.23681092814072    9.58146021624872   10.48010645116777
H         6.88224588913013   10.55244244357553   10.79344877587588
C         8.59646202943025    9.32977340598073   10.43875318510659
H         9.30140159363789   10.09799877633676   10.72705778339618
C        11.26699439178080    8.14547109509042    8.25690470324238
C        12.12292311464896    7.32179266342763    7.53386191103890
H        12.47438150061138    6.40164648407604    7.98400372134281
C        12.51106231159766    7.68215012092347    6.25578870519854
H        13.17869545010365    7.04448999849472    5.69641407472561
C        12.04032208403388    8.85906110144419    5.69689651987313
H        12.33964556739422    9.13905034312856    4.69797460283374
C        11.18041821584276    9.67718439565876    6.41400500193241
H        10.81072582791840   10.59103807084703    5.97295353333512
C        10.79107551468257    9.32547050229201    7.69268366969711
H        10.11749773912331    9.95822008133479    8.25350340388322

