37
CSD_code = LOPTUF | q = 1 | S = 0 | Stoichiometry = C9H20N4O3Re(1+) | MND = 6
Re        0.19913521593038   17.49193828689631    4.50090682313929
O         0.64593724115219   16.70196721812835    3.10337331727070
N         1.23289592693149   16.15169391158783    5.94890698480409
H         0.79867344836209   16.29958470922600    6.86365828691454
H         1.24150375919207   15.14864359708235    5.76250934953937
C         2.62304230121920   16.66232032175976    5.98623374418131
H         3.11310837948252   16.34051889660178    5.06460445456358
H         3.16623491279242   16.26783217059470    6.84900997208613
C         2.57226405111206   18.19114942768840    6.01711586936323
H         2.24715323440546   18.54109397584982    7.01010247897381
H         3.56923322389353   18.60275262217499    5.82514992019686
N         1.62671547305754   18.61795287480205    5.01909396961621
C         1.62288835533933   20.01312564954796    4.66667097325026
H         2.63837495899098   20.38307601460044    4.48695355153502
H         1.18961616221784   20.60318130860196    5.49024526439638
C         0.77874892765266   20.17083055660632    3.40121176859323
H         1.31579991959603   19.73170988501490    2.55760933087188
H         0.56748756278141   21.22343781923593    3.19534215307915
N        -0.47257164431373   19.39708306663049    3.57738475631229
H        -0.97564559559304   19.35912691611964    2.69044841819206
H        -1.06786293016962   19.87594513570805    4.25745729550014
C        -1.92630647662009   17.55943043222644    6.51839022221825
O        -0.82932175865154   18.04622558515275    6.04318133249867
O        -2.33844689510273   17.72152365991957    7.63624567249249
N        -1.84432854209884   16.32646476751546    4.36314896346482
H        -2.24107325121821   16.62185855980931    3.47571985562728
C        -2.72295723244555   16.70386435234551    5.48250667715891
H        -3.55892026237202   17.33051533385774    5.15824053335027
C        -1.73417035093347   14.84729585776682    4.35492128941953
H        -0.73893875998461   14.54986372849216    4.02349944233403
H        -2.46864275614936   14.42310755662118    3.66446773791233
C        -2.07750101043956   14.42771453115534    5.77925118212712
H        -2.39145350210864   13.38914842806575    5.83589848542286
H        -1.22864175965832   14.57135554884316    6.44909966583294
C        -3.19891364696297   15.40138277325469    6.13164844547663
H        -3.34292337522440   15.53036630957352    7.20265245112970
H        -4.14019330406268   15.07491821094173    5.68983936115390

