33
CSD_code = LOPVIV | q = -1 | S = 0 | Stoichiometry = C14H11N3O3SV(1-) | MND = 5
V         5.93650079744593    4.33724966199987    4.98726326720530
S         5.38136157870760    6.34913301636709    3.85421533746251
O         5.55083139575766    3.35374115172405    6.44567353043435
O         6.27728713906251    3.43399344392026    3.78913064336221
O         7.15776397258604    5.12135359080435    5.49756794782784
N         3.74037269355195    4.16398170887469    4.74264788523031
N         3.04801473374752    5.02303754741707    3.95544635460248
N         3.12896377996873    6.98607381299614    2.71320923957740
H         3.78346752352536    7.70129134770353    2.42493246450886
C         3.67498271806485    2.03177674348329    5.84316484576044
C         4.90176878294572    2.24907303912121    6.53772314927077
C         5.36096897249871    1.21705991234193    7.38775002408933
H         6.29047694782964    1.38306573264188    7.91526447523458
C         4.66493403344604    0.04054511192429    7.52560323275711
H         5.04712277237962   -0.73614811549051    8.17530332497616
C         3.47034369511083   -0.16419778309480    6.83724734853973
H         2.92957423874170   -1.09321124538235    6.95235158512819
C         2.98726316032702    0.82535290593002    6.01217889255668
H         2.05894593137268    0.67854755923499    5.47412473454345
C         3.14189866579516    3.05263258098075    4.99974113795066
H         2.15932672185972    2.87533816282098    4.54650350691930
C         3.71855111763436    6.03859892907769    3.51060477227371
C         1.84191643855938    7.09563417797415    2.23723521823459
C         1.53603186341100    8.18026603537051    1.40807650583029
H         2.31291311043283    8.89102965549994    1.16126578641827
C         0.26077730063487    8.34659312683763    0.90761976228166
H         0.04360730086826    9.19137980717760    0.26836082569465
C        -0.73854679895560    7.43900165198921    1.21939402925032
H        -1.73691608571319    7.57075459661564    0.82751038513902
C        -0.44182603857176    6.36164114760168    2.03890224176817
H        -1.21532577432466    5.64810165867921    2.28715461790039
C         0.82991810673559    6.18461036482087    2.54687744590452
H         1.07062920456559    5.35039896203699    3.18355548136464

