72
CSD_code = LOPVET | q = 0 | S = 0 | Stoichiometry = C34H24N4O7S2Zn | MND = 6
C         2.42444352312786    1.04036924296626   13.65036619056747
H         3.31121137915431    1.61883545314482   13.87185580124680
C         1.80032237614299    0.24605448091622   14.62183403425899
H         2.20835660811363    0.21057968337800   15.61911470277179
C         0.68059619177718   -0.47476070486017   14.28618368657871
H         0.17562266091302   -1.09635107634301   15.01126773541403
C         0.18423186892733   -0.40498540350615   12.96927336780547
C        -0.95904879532346   -1.11845478093904   12.51871071082473
H        -1.48161325510241   -1.74704135337482   13.22391643915416
C        -1.38453096431952   -1.01690974067018   11.23127731587240
H        -2.25225215682651   -1.56330515664934   10.89352995968832
C        -0.70135675776702   -0.19513946919689   10.29332859911745
C        -1.09627949942586   -0.06164862748868    8.94853875292877
H        -1.96106717060409   -0.59975620820915    8.58993996163982
C        -0.36615279014904    0.75352809661867    8.11538570324026
H        -0.63972603431803    0.87610604883841    7.07958644770763
C         0.74614878242102    1.42846912660029    8.62296291192750
H         1.34148162601781    2.07376319713062    7.99487250495283
C         0.43790052209432    0.53187295192611   10.70573199862673
C         0.88408278591907    0.42424074620251   12.06419120623638
C         0.72271054675355    4.33861562580771   12.01514108902510
H         0.25087317127050    3.51245375174788   12.53014366656129
C         0.37963736503973    5.65600049660341   12.32676113278742
H        -0.35232392744942    5.85242219149467   13.09436075899956
C         0.99148718137522    6.68169068913215   11.64695650092156
H         0.75734827408375    7.71404156091880   11.86156643987827
C         1.94559324654630    6.38061364079713   10.66115807617528
C         2.63708558201278    7.38186329159830    9.92170013539925
H         2.40263776432730    8.41697120067726   10.11691813611038
C         3.59110125570523    7.04993859221265    9.01802775220600
H         4.17230216280260    7.79457154033126    8.49039593725216
C         3.91357387603344    5.68239363261419    8.77877270494684
C         4.93034634033790    5.30660782704470    7.88290551065175
H         5.50369127014516    6.09274125626229    7.40778961906424
C         5.18837770629702    3.96780473313408    7.70489817844228
H         5.96322628590187    3.63542878213971    7.03288271599420
C         4.44424169202884    3.02703427486046    8.41944562464684
H         4.62341443755295    1.96766928478271    8.30200749823176
C         3.22729973655285    4.66099991249696    9.46668122356747
C         2.22856134911900    5.01335123722078   10.43097004263136
C         6.35311227319864    3.93419463846348   11.35576216845510
C         7.25568123385271    3.47730195615290   10.44079771189729
H         7.46772152656779    2.41963857019102   10.40777666028594
C         7.89844995244853    4.37547957952430    9.57172495234453
H         8.63824833747512    4.00221757718873    8.87978903568508
C         7.57666437092885    5.70582527336150    9.59656749019538
H         8.03667789762157    6.42709944774925    8.93945794127206
C         6.22996148036526    7.53594470026354   10.53234851943546
C         5.36379867885426    8.00888519038240   11.46991513811219
H         5.10041354739434    9.05454595983692   11.43705072263902
C         4.82678872368840    7.14205082050551   12.43748365172455
H         4.15869392313824    7.53395665858272   13.19148749874793
C         5.13014039591357    5.80702066195310   12.41510398917942
H         4.71228028726553    5.11931134000243   13.13300197111263
C         6.02289684284099    5.29771006459116   11.45038301320974
C         6.62294684202619    6.18937703099121   10.51419402925713
N         1.97214606506382    1.12255689634021   12.41831113967954
N         1.13466440798704    1.32205796421607    9.87694550740681
N         1.61196107831682    4.02478972149949   11.09852492562341
N         3.49594729944516    3.35628925463901    9.27369061810698
O         4.02270482743129    3.04424384284352   12.00878652552689
O         5.81180684148705    1.41754205788121   11.85436323276165
O         5.68614236174611    2.93802420020718   13.75347116241626
O         8.18868200729333    8.70858573497883    9.25482965696637
O         6.26466717178979    7.89039575323745    7.98873918657766
O         6.01259760949300    9.85644278314159    9.40188024670289
O         4.00970945268872    0.60142841450828   10.28803737879917
H         3.81622221958673   -0.29215024086839   10.58257542346211
H         4.81056255433634    0.88128380879068   10.84447243783652
S         5.45441741954932    2.75862469139341   12.34642440814904
S         6.74477326275546    8.62712488143011    9.16432085044627
Zn        2.76936289032630    2.27972073803307   10.85093203220512

