95
CSD_code = LOPXAQ | q = 0 | S = 0 | Stoichiometry = C40H49ClFeN2O2 | MND = 5
Fe       -1.24166841572515    2.98320855682926    5.31821239444823
Cl       -0.60242562457313    4.21200784643589    6.86667959251336
O         0.02919174738041    1.54099248068185    5.61523031981872
C        -0.51420325167677    0.52674188420769    6.20332516908876
C         0.14119665779289   -0.68637019894521    6.53643782206646
C        -0.61048131918540   -1.66286114086478    7.14956582001055
H        -0.13257513784515   -2.59683706118300    7.39140626705072
C        -1.97232982492672   -1.52629149166794    7.48003152215358
C        -2.60328028282873   -0.34021209922806    7.18435168834992
H        -3.64463676503320   -0.17196416683251    7.40570785339848
C        -1.88365852044371    0.68722199787073    6.56510475837269
N        -2.35251733956719    1.93424601426720    6.26306365403617
C        -3.50866935902917    2.38548880985036    6.90687735154679
C        -3.55858337610742    2.38609923783016    8.30254708219044
H        -2.69974209907374    2.02210341202405    8.84546267158358
C        -4.66960030793595    2.85990577101186    8.96916629092524
H        -4.68469926580097    2.86016142955623   10.04842502913218
C        -5.76209131650067    3.33040686608757    8.25722271490565
H        -6.63542110670700    3.69512575970833    8.77606597383484
C        -5.72784143233355    3.32931183861105    6.87556951947849
H        -6.57401488776510    3.69059807526393    6.30837131145350
C        -4.60873713319105    2.87512546160215    6.18750947403304
C        -4.60825282099335    2.83742470866259    4.71325595027321
C        -5.51338123151338    2.02232597663797    4.04719191153457
H        -6.22383737399137    1.45268495597571    4.62810415536212
C        -5.49916945081630    1.92352559375711    2.66753989239963
H        -6.20647776061928    1.28321395741773    2.16350618289566
C        -4.56869757730569    2.64652851151863    1.94144052221964
H        -4.54399049387229    2.57323277170834    0.86485367975619
C        -3.67342492668647    3.48040838896939    2.58614010669071
H        -2.96607879698188    4.05697071000836    2.00943643514749
C        -3.68466926466045    3.58932759929273    3.97470677807864
N        -2.78903894642198    4.45460853821357    4.66082128618481
H        -3.23664362347442    4.91796900553050    5.44964046793679
C        -2.03074849074592    5.35132087883528    3.83578728211539
C        -2.46871424377318    6.60431461475987    3.47097656120104
H        -3.41595516244232    6.95887648458824    3.84939735971957
C        -1.68871943751143    7.38627941845570    2.62332857571512
C        -0.48737150413592    6.85444868908965    2.16626427999802
H         0.11722087664317    7.45211906333737    1.50933411251193
C        -0.01213998129795    5.59799541051744    2.51824505220783
C        -0.80488042389507    4.82673953200787    3.38924454186568
O        -0.45143720676536    3.64126932506510    3.86801902723849
C         1.60869723829349   -0.85386286489759    6.17925368801635
C         2.41220177951952    0.22710023167814    6.91461130308262
H         2.05569056658968    1.21414354719722    6.63603102259546
H         3.46675021377039    0.15160741829161    6.65785974266785
H         2.30620001823745    0.10982615020180    7.99134964411349
C         2.16184883512921   -2.22671072058872    6.57066936902788
H         2.09068829160071   -2.38762954924231    7.64408139781581
H         3.21245796248373   -2.28107647836986    6.29290601730855
H         1.63583470979607   -3.02555920070592    6.05212838836366
C         1.77356278631518   -0.67568354292791    4.66393904909970
H         1.18808498753880   -1.42139498272869    4.12862705304130
H         2.81918123363522   -0.78811570430256    4.38504275127136
H         1.43821610541536    0.31310333897744    4.36570785474027
C        -2.68361445883123   -2.69100057181928    8.15188801208218
C        -2.63036083653900   -3.91615729425427    7.22819738100480
H        -3.10202375206479   -3.68738190000314    6.27488760991043
H        -3.15748007662799   -4.75210931282616    7.68341314476292
H        -1.60667494386510   -4.22416714213202    7.03588943115988
C        -1.98449644324070   -3.01040745258343    9.48078262385326
H        -0.95078449222052   -3.30515932711134    9.32531754251326
H        -2.49773802401408   -3.82465205228988    9.98826572448288
H        -1.99570906033640   -2.13698042805434   10.12903820417202
C        -4.15373634532185   -2.38393235714004    8.45092548710718
H        -4.24658856508461   -1.53289871503240    9.12152694026589
H        -4.61360928000569   -3.24446316079073    8.93285139742570
H        -4.70367591303590   -2.17730879765483    7.53579212034320
C        -2.18371353730825    8.76917334755407    2.22838941971659
C        -2.37330657964068    9.61212056470176    3.49736102202334
H        -3.11737639004227    9.17651193851047    4.15794075157660
H        -2.69914538912718   10.61613571317175    3.23430578230063
H        -1.43516138808342    9.68429585499182    4.04276990861215
C        -1.21035300435795    9.50916813992669    1.30730379451957
H        -0.24822649847064    9.65518478546346    1.79199720288446
H        -1.61655258796306   10.48944555563838    1.06647303482259
H        -1.06444737639172    8.96979382928698    0.37446927418558
C        -3.52379206505136    8.62690200971161    1.49183271349265
H        -3.39979458432484    8.01452128416055    0.60114562532129
H        -3.89030364120793    9.60538034274027    1.18934862859028
H        -4.27687279182949    8.16228642074849    2.12216663612825
C         1.32386012647300    5.05509755270834    2.03955015448468
C         2.21917841122138    4.81812156765491    3.26409366310490
H         2.37742845345627    5.75063681117699    3.80222652296606
H         3.18491722498350    4.42805675863386    2.95018125896094
H         1.75987914389267    4.10303297488813    3.94080538760972
C         1.08672478742265    3.72721102911671    1.30643009711454
H         0.63156063392563    3.00184508791380    1.97417473285782
H         2.03241686874699    3.32297868070188    0.95232155182146
H         0.43165752136869    3.87797403896373    0.44957071367613
C         2.04710091146436    6.01085428239747    1.08646791604154
H         1.45443210579292    6.20373282101048    0.19462325932704
H         2.98552005542842    5.55816643796896    0.77345727135345
H         2.27904325485946    6.95424962190527    1.57524233484992

