48
CSD_code = LOPYOE | q = 0 | S = 0 | Stoichiometry = C15H25N3O4Zn | MND = 5
Zn        2.13509069603915    5.08873184186064    3.19582706313016
O         1.97443852287960    3.99460648072458    1.40138508973572
O         0.57599290423212    3.63588977798489    3.03473900121735
O         4.11120482883469    4.36224759061041    3.34073655384968
O         3.72757551125336    6.50810345547411    3.31597065647041
N         0.86233767643709    6.37482579698633    4.36355435630844
N         2.15509843818980    4.27813125280910    5.46225366919612
N         1.23905949138113    6.76952787118100    1.72491467193039
C         0.55660444495390    7.57750620926846    3.90582481395346
C        -0.25193415507236    8.44286910073473    4.63426100851775
C        -0.74059492792878    8.02118328069459    5.85970698385438
C        -0.41008996719456    6.75717805290573    6.31975521510904
C         0.40604412743320    5.95375627400951    5.53151282166386
C         0.80275727446343    4.56192012280624    5.91545262632851
C         2.41953244551310    2.84811455531735    5.48919608996478
C         3.11677980847198    4.97636776541301    6.29950356207923
C         1.16147171360254    7.93955141339635    2.58483124203458
C        -0.08398868077614    6.42931840213243    1.22771590081425
C         2.14285383168464    7.00705973740359    0.61034794744823
C         1.03553035719366    3.35270779480586    1.90668210641775
C         0.42404383939093    2.19897942498551    1.13096942547299
C         4.51715042685757    5.53830672542011    3.31222894292395
C         6.01175206351323    5.80617370529207    3.27844018792872
H        -0.49032638623936    9.42171458339424    4.24808393757679
H        -1.37162464809633    8.66982970733877    6.44927318534616
H        -0.77553382525288    6.39835971307122    7.26937484851524
H         0.68824859518765    4.41030779619657    7.00162941392554
H         0.12946882196723    3.88229936331347    5.38546558111585
H         2.36179822340010    2.44412323322883    6.51045702276012
H         3.41179563448440    2.66999515960332    5.08264543758491
H         1.69489440664626    2.34276257257547    4.85607652878394
H         2.95213288683650    6.05051063292109    6.23646070043877
H         4.12127626064427    4.76350193862037    5.94309085101158
H         3.03819304577728    4.66167324388467    7.35155023874061
H         0.60142521211473    8.76454751151425    2.11394420165381
H         2.18495802249731    8.26937876103164    2.78424227153039
H        -0.74521299584202    6.19968810268925    2.06126093255837
H        -0.01248837489281    5.54764168053292    0.59614142674466
H        -0.51793612982583    7.25338724444345    0.64074934202207
H         1.78599367238551    7.82338488250436   -0.03448289182279
H         2.22564141114640    6.09280519861794    0.02822755742513
H         3.12697051639060    7.25418218184472    0.99997633196475
H        -0.63167219342226    2.10662822204064    1.36941506843402
H         0.93212131332410    1.28359322318860    1.42641728842353
H         0.56754375793775    2.34862753067054    0.06521740163688
H         6.23221126006021    6.75424542299076    3.75986432859979
H         6.32406289747299    5.85878049708738    2.23764152845991
H         6.54694794394511    4.99427496447927    3.76086753021738

