91
CSD_code = LOPZEV | q = 0 | S = 0 | Stoichiometry = C32H52Cl2O2Si2Zr | MND = 12
Zr       -1.14236871822998    2.89733261423530    2.59686172186138
Cl        0.19366455886315    4.57707926657699    3.51117030714643
Si        3.38095725270485    3.25561392302595    2.00542691817662
O         1.91973926075401    3.50284197390263    1.29862647457949
C        -0.50894750585188    0.83030431205066    1.38435848420489
C         0.67639856424191    1.43327053765001    1.89985526959430
C         0.88192076107299    2.64290317585451    1.18916779157634
C        -0.19432752815065    2.83186581264026    0.29499576609147
C        -0.32917395304016    3.88174009393651   -0.77230195651239
C        -1.21007666828224    3.32840088421970   -1.89577419143515
C        -2.50437707127598    2.75783705949502   -1.31604847790159
C        -2.22758580614258    1.48714522581855   -0.50491432196964
C        -1.07207255372457    1.71624964530425    0.43362777629743
C        -1.05310661008938   -0.49855293916775    1.83023562611842
C         4.29868759900886    1.86082168410286    1.07173459381257
C         3.22803739562701    2.75125490830308    3.84386317535947
C         4.21648224388446    4.96566737096757    1.78592105525180
C         5.69894848861192    4.85676535642306    2.13968244155020
C         4.08997783853004    5.45046215499084    0.33983252453918
C         3.56192482181400    5.99916392283109    2.70497679142198
H         1.39997706459614    0.96801550473882    2.55467263441266
H        -0.78342338382544    4.79456346994135   -0.36799021606202
H         0.66349597945484    4.14392761209651   -1.14966524897919
H        -1.44067391402688    4.12287028143949   -2.60657872548110
H        -0.67128830322153    2.54061200795884   -2.42808496465939
H        -2.95594500713814    3.51380737565873   -0.66999855621495
H        -3.20689581689239    2.52780029745910   -2.11931993609532
H        -1.97146683039871    0.66992096204663   -1.19106451528108
H        -3.13187650525254    1.18774624213374    0.03712700671046
H        -0.37707381814617   -1.30859313173192    1.53913505597305
H        -2.01492229019650   -0.67984515597153    1.34474713557661
H         3.71002757842958    0.94795659195349    1.04343986676553
H         4.49928106958320    2.14300127321010    0.04261401539852
H         5.24885236076774    1.62512112247819    1.53819597307391
H         3.26485145837618    1.67358477550356    3.98309599357940
H         4.02740385444723    3.17183353366996    4.44489081101465
H         2.28769985039717    3.11844385455406    4.24760573322215
H         5.82948471619659    4.51196205561561    3.16247536508007
H         6.20337625178157    4.15597015738831    1.47915986142396
H         6.18585061438535    5.82660306616921    2.04402684009868
H         4.56540563887162    6.42426804601270    0.22403790658470
H         4.56760108553873    4.75557358334530   -0.34761672862407
H         3.04303757814187    5.54447895389273    0.06486166167472
H         3.69917618837619    5.73117140928305    3.74948463352736
H         4.00142802129643    6.98340137172053    2.54414788018963
H         2.49492983023818    6.06232240867117    2.51068516164801
Cl       -2.47727909431529    4.57709755976497    1.68227262967558
C        -1.77532339144585    0.83026864285358    3.80951397054876
C        -2.96078221873194    1.43309396990411    3.29409853180837
C        -3.16637060705546    2.64270054184326    4.00481398502864
O        -4.20422457632432    3.50257778960704    3.89544558792143
Si       -5.66535834438337    3.25542652320665    3.18845926688442
C        -6.58330588454881    1.86080830627709    4.12218764550732
H        -5.99475575688511    0.94787459934529    4.15046475272424
H        -6.78385444232919    2.14300938577080    5.15131637390266
H        -7.53350178127590    1.62524439889506    3.65571406439229
C        -5.51207261540586    2.75079542571198    1.35013681908312
H        -5.55188651246534    1.67324773014049    1.21081149847217
H        -6.30950138267376    3.17382582507510    0.74825457660125
H        -4.57022648494434    3.11530915490966    0.94750420654671
C        -6.50073170541612    4.96555890172813    3.40798631727486
C        -7.98320776217539    4.85686813237846    3.05419995186566
H        -8.11377191705419    4.51204074329915    2.03141753443851
H        -8.48771351018812    4.15614413317273    3.71473531804100
H        -8.47001498294406    5.82675869392313    3.14983510820693
C        -6.37419090856155    5.45031720831253    4.85409508560180
H        -6.84954178656031    6.42415239274319    4.96995544967604
H        -6.85184575724607    4.75543542611003    5.54152907623478
H        -5.32723946838654    5.54425201571900    5.12904979161722
C        -5.84609595402231    5.99908048633959    2.48901454455374
H        -5.98333381991638    5.73117587483978    1.44448442863931
H        -6.28549331824146    6.98336178513012    2.64990079582472
H        -4.77910059939975    6.06210194376649    2.68331931731301
H        -3.68437147405978    0.96775664883699    2.63935017373124
C        -2.09005303961364    2.83181029273657    4.89886699204783
C        -1.23106065072797   -0.49855249611310    3.36365209049047
C        -1.21218784760242    1.71630445576923    4.76016284819515
C        -1.95524636008866    3.88168910289652    5.96616254899339
C        -1.07441011579686    3.32838786142252    7.08969228340469
C         0.21992066237999    2.75807300534675    6.50978464115408
C        -0.05648705097686    1.48737045724265    5.69851905742013
H        -0.31226809162559    0.66994316326088    6.38455842386154
H         0.84784207150762    1.18837701895170    5.15630440616246
H         0.67146337162445    3.51419013570584    5.86387906506805
H         0.92240635856403    2.52801978181956    7.31306578168731
H        -0.84395569435561    4.12281055261618    7.80060582157485
H        -1.61312699975206    2.54044333850089    7.62185220352927
H        -1.50108293079290    4.79457385605266    5.56189721301834
H        -2.94792780204053    4.14378408710794    6.34353108179338
H        -1.90702182979284   -1.30864333321932    3.65477896919898
H        -0.26922363605888   -0.67975017205933    3.84913735599032

