71
CSD_code = LOQBUP | q = 0 | S = 0 | Stoichiometry = C31H31NO7Ti | MND = 6
Ti        3.80933210180069    5.54529680086720    1.25843455946178
O         4.92079888988897    4.06166147777527    0.75533880059947
O         5.23151602479040    6.62733690276659    0.56241009338665
O         3.09217504636469    5.38198518471234   -0.66348860322915
O         2.37540008538393    4.41729549631869    1.53915522950953
O         2.76353531801258    7.03617965061867    1.33101095845536
O         4.25971504836802    5.46758165011322    2.91674444852238
O         0.78903746229922    6.73974874273909    2.27778359481122
N         1.50215334559136    4.36171042576692    0.49473588500549
C         5.21691148388507    2.68280798605276   -1.16750934003928
C         5.33986045910560    4.01652332497160   -0.43563043262164
C         5.88863413978555    5.11072354661102   -1.10708810290306
C         5.82169916763097    6.39170217135160   -0.53495835358077
C         1.16530796664101    4.75822783789128   -1.93128307243138
C         1.94614236826825    4.86163356188634   -0.64101271086074
C         0.16963360718342    3.97081326107231    0.88553935917086
C         2.74962435442716    2.27581058609437   -1.67740616081777
C         3.86529344325146    2.09262252964608   -0.85416779335013
C         3.71076986670645    1.39984512721051    0.34200662317524
C         2.49705677971694    0.84198849985373    0.69760796161231
C         1.41395808786386    0.95398655843370   -0.15719041450295
C         1.54382494526045    1.67150923769143   -1.33054583976294
C         2.80574028505544    3.08397691223527   -2.91697733438006
C         2.06991626333277    4.26781441496172   -3.04142105068654
C         2.17539338594798    5.00436875948176   -4.21311215765667
C         2.96947070276606    4.57606022238766   -5.26218382087250
C         3.66914062959140    3.38786567883786   -5.15257997654966
C         3.58541890297749    2.65168768362789   -3.98524143658480
C         6.41179387484252    7.55284400568494   -1.24090671880897
C         5.82736540894334    8.80361963747176   -1.03491518753735
C         6.33131435717021    9.92326472679448   -1.66266436664501
C         7.43885783796131    9.83171808810127   -2.50147883030270
C         8.02517817588293    8.58641938582336   -2.69457935854926
C         7.52013055735629    7.45698774104966   -2.07785136368260
C         7.97166404055446   11.05280331691317   -3.18481470236934
C         1.98485634305103    6.96329013839327    2.35957517823063
C         2.69478835447258    7.14649482783977    3.71514220691095
C         3.42593884522380    5.80088507240976    3.96491748635004
C         1.68361838029100    7.42099623513414    4.82427931357430
C         3.74052326025669    8.26019518657433    3.60617864817774
H         5.35947956865086    2.83869502862166   -2.23483049503381
H         5.99581311671490    2.01211882148373   -0.79479587937207
H         6.28870528581775    4.98574720344370   -2.09974517335446
H         0.30674755350678    4.09646184632599   -1.82656060441595
H         0.80180524175587    5.75753457715216   -2.18348007321459
H        -0.25651822736054    4.78008100609332    1.48751947595519
H         0.24934924138357    3.07214468284818    1.49864460792170
H        -0.45660275202491    3.77640654587833    0.02023957938989
H         4.55996492763787    1.29845937137535    1.00182015036446
H         2.40062106848131    0.31030367988238    1.63225379184282
H         0.46961637418605    0.49184545762890    0.09153748881194
H         0.70222037484509    1.76038356311672   -2.00369286082407
H         1.62452564483317    5.92903257150983   -4.30747763413210
H         3.03576526638383    5.16627921092842   -6.16377147700516
H         4.27912142173570    3.03569403727630   -5.97119473226207
H         4.11724598915658    1.71432389507167   -3.89925428367589
H         4.96571912003497    8.86451280107242   -0.38308703207457
H         5.86705963414689   10.88584314516783   -1.50231054278685
H         8.89224698108972    8.50155037320672   -3.33430460580248
H         8.00540561299156    6.50419437109356   -2.22560997405943
H         8.04403865692892   11.88301024098578   -2.48493417222146
H         8.95309313084636   10.86552564821523   -3.61281270040473
H         7.29885877741225   11.35384065934266   -3.98805087332895
H         2.67257763187291    4.99988503019498    4.08919206781329
H         4.01797859416739    5.87950212230400    4.89352848630890
H         1.22645409635520    8.39680102056677    4.67853886285303
H         0.89620931367169    6.67216085283157    4.80285757426139
H         2.17069901519231    7.40093854767747    5.79712063342811
H         4.23097940107038    8.40425099029551    4.56805071885662
H         3.27062213031605    9.19558274219244    3.30691572847870
H         4.48910821031092    7.98020736203855    2.85984072946565

