89
CSD_code = LOQGUU | q = 0 | S = 0 | Stoichiometry = C27H49BN6O4SiZn | MND = 4
Zn        0.00003472632616   -0.00005196540987    0.46533234847507
Si        0.00003293202443   -0.00010075715482    3.87073261068774
O        -4.36280695251498    0.01167096151484    1.17511036869986
O         0.00007803886782   -0.00013361947084    2.28089425530762
N        -1.25861454093913    0.68432903577820   -1.86490845179965
N        -1.45081599508925    0.90656160922766   -0.55655083799317
C        -2.59934173496913    1.57173800682929   -0.41729417277960
C        -3.16171023411851    1.77359624405777   -1.68018160568068
H        -4.08080551631061    2.26423701191720   -1.91960421419301
C        -2.27621637521651    1.19458342797021   -2.56264793286344
H        -2.31107556337995    1.12090682166603   -3.63084894828066
C        -3.10588674898134    2.04571618920276    0.91439512085469
C        -4.38839054598432    2.86338884158281    0.74327566221557
H        -4.21539825815670    3.71841084089704    0.09457825696381
H        -4.72199104177265    3.22801074520550    1.71225324125746
H        -5.17159711794213    2.24062119551445    0.32107721480745
C        -2.02170603161186    2.90625618786513    1.57059055530197
H        -1.75402226169257    3.73020822114735    0.91226792251614
H        -1.13857636678903    2.30380366363862    1.76680607427245
H        -2.38203599054174    3.31456213143170    2.51186893711001
C        -3.39862270738846    0.82802350552044    1.80457119771780
H        -2.47182445591038    0.26400137251225    1.97683613097421
H        -3.77742987594656    1.17007472487000    2.78050936068510
C        -4.76069266248257   -1.06960552128547    1.97369614364810
H        -3.90995498910073   -1.71152152827350    2.23001872714167
H        -5.48463544931996   -1.63834240289646    1.39291245187643
H        -5.23134852409336   -0.72389539775473    2.90389810301757
C        -1.25302600632606   -1.25217399616197    4.60262210484616
H        -2.24130336678481   -1.14453824586544    4.16652822859540
H        -1.35381260719037   -1.10479248905090    5.67320464725421
H        -0.93391707686150   -2.27739353829308    4.44538697006025
B        -0.00000426320153   -0.00002077696333   -2.40117688495049
H        -0.00002210020171   -0.00001272080827   -3.58452554351319
O         2.17136570416036   -3.78408566730647    1.17507179374260
O         2.19136201003354    3.77250304514572    1.17500650646035
N         0.03664508976866   -1.43219697979833   -1.86495475194424
N         1.22197725167248    0.74780330320643   -1.86496040007328
N        -0.05971461556481   -1.70978202190734   -0.55660653232704
N         1.51053341805791    0.80316808589185   -0.55661181189691
C        -0.06146544980416   -3.03702110003261   -0.41735473969536
C         2.66083804891634    1.46526247057653   -0.41735284406313
C         0.04489522086629   -3.62495971114832   -1.68025123111517
C         3.11682163893175    1.85136333760412   -1.68024718675675
H         0.07955465021124   -4.66623619026200   -1.91968408280874
H         4.00125907339859    2.40202736398263   -1.91967621690239
C         0.10357055373026   -2.56858313985870   -2.56270857726729
C         2.17264442160953    1.37397728480276   -2.56270870109381
H         0.18480306370786   -2.56192040702735   -3.63091000404762
H         2.12625996398866    1.44099713974448   -3.63090955628978
C        -0.21863836104353   -3.71269459271916    0.91433858319657
C         3.32456254604225    1.66700096944452    0.91434493242209
C        -0.28543825486963   -5.23221377471008    0.74320658201204
C         4.67390292900141    2.36891454992156    0.74320927898876
H        -1.11239462272577   -5.50994952566703    0.09451298370912
H         5.32791579695472    1.79160885920665    0.09453143667898
H        -0.43438142433654   -5.70343971001517    1.71218390169395
H         5.15645772787015    2.47555458640716    1.71218983462283
H         0.64551418277959   -5.59906003890945    0.32100329101897
H         4.52612779901319    3.35855989346628    0.32098943235585
C        -1.50600158090105   -3.20409331376810    1.57053909786509
C         3.52777132468161    0.29782440675329    1.57057629480123
H        -2.35340564709908   -3.38429410793326    0.91222698911166
H         4.10753766084662   -0.34596318051726    0.91228399639270
H        -1.42588150759885   -2.13804930424730    1.76675293034250
H         2.56448853184756   -0.16580730295784    1.76679402657963
H        -1.67940445766632   -3.72030598013122    2.51182055882558
H         4.06151840237533    0.40578223768854    2.51185899861362
C         0.98226418682221   -3.35730921406099    1.80451927053414
C         2.41632378996914    2.52934290845636    1.80449077769254
H         1.00727495436098   -2.27266790137092    1.97679184653713
H         1.46449617810752    2.00867733129444    1.97678122281370
H         0.87545591179251   -3.85640071294395    2.78045361182666
H         2.90195190732341    2.68642620595490    2.78041952731519
C         3.30669963904605   -3.58798469030103    1.97367746625216
C         1.45391555821681    4.65772801300469    1.97360371459112
H         3.43718854004945   -2.53026454666461    2.23002125605948
H         0.47267185749763    4.24189375313523    2.23002665708026
H         4.16123758172575   -3.93051585682609    1.39290102747905
H         1.32325809880333    5.56901040273837    1.39278116056915
H         3.24264923809577   -4.16845942036024    2.90386796300958
H         1.98869954985424    4.89254930051117    2.90374897309519
C         1.71081980636439   -0.45916131393280    4.60288889200115
C        -0.45785463905676    1.71116705450365    4.60239727944745
H         2.11176938246228   -1.36889565610477    4.16688384122419
H         0.12955096858114    2.51320136946221    4.16633906790866
H         1.63350785258641   -0.62004852309703    5.67347892219717
H        -0.27992277246615    1.72479919225891    5.67300391502744
H         2.43914472158372    0.32978682927908    4.44561450319206
H        -1.50526373697409    1.94741621117753    4.44507624875941

