47
CSD_code = LOQGUT | q = 0 | S = 0 | Stoichiometry = C18H22BN5Pd | MND = 6
Pd       -3.80286628832751   10.13958578233286   14.73083243141826
C        -3.21696740346805    9.80503857926666   12.78137708101957
C        -4.74441494043981   11.86779642332588   14.14627421170525
N        -1.98918716092002   11.27792471979074   15.24107021924394
N        -1.53297534268211   11.38845545265030   16.49003975310670
C        -0.58695716700549   12.32934326645756   16.53932895871070
C        -0.41955080556998   12.85912117241348   15.27361346725193
C        -1.33416067873276   12.16415219157477   14.49168561906870
N        -4.37937583849003   10.49743203215416   16.85185765685030
N        -3.50517886260364   10.65012453282888   17.84502160426297
C        -4.15668404112272   10.89663572616909   18.98345643733899
C        -5.51464886232356   10.90962631443042   18.72254615459559
C        -5.60097350277779   10.65701231484345   17.35895212302418
B        -1.97665665688554   10.49858535640561   17.67546495853236
N        -2.99888029388180    8.10233487060577   15.27659831885622
C        -1.79165233195100    7.66388020708275   15.52723950652484
C        -1.53577305783724    6.58102628291951   16.38448733701139
C        -2.58393383090967    5.98649133720939   17.03297076010212
C        -3.89721781479988    6.44043827669691   16.79110867484060
C        -5.03644630065516    5.92882173013015   17.44441534462987
C        -6.27188854204204    6.44933005950236   17.17150476820547
C        -6.43616113146713    7.45823580199210   16.21218824114551
C        -5.36092153569698    7.97606394986506   15.52528559796688
C        -4.06120926932172    7.49500660163038   15.85721128315102
C        -5.47963134248906    8.98643979859653   14.44270257794976
H        -2.17629252323306   10.12956021386342   12.69231159322112
H        -3.81664258052425   10.33513371713260   12.03843314533272
H        -3.25626315909463    8.73459673476635   12.55803980421372
H        -5.10443729381595   12.37324320105075   15.04666225008556
H        -4.03710554516997   12.52511824531767   13.63697111397913
H        -5.59062420002391   11.68002999364700   13.48124758183807
H        -1.53337991670853   12.27147367772655   13.44082341655364
H         0.25696112174338   13.63009484396891   14.96630735604681
H        -0.08888599941691   12.56550134225516   17.45757610821988
H        -3.62767315143149   11.04727843862828   19.90249060902433
H        -6.31572004552547   11.07926142889782   19.41259848744538
H        -6.47710806959141   10.59364653592288   16.73977095402054
H        -1.71836596647958    9.35307966893491   17.43409444656055
H        -1.44626152465957   10.89409349529914   18.66313285501207
H        -0.97468908715448    8.18058930576851   15.03733465274505
H        -0.51936083502280    6.25686339729036   16.54392625503985
H        -2.42437320756791    5.17922276502414   17.73375266998351
H        -4.91265207084859    5.13659369300050   18.16782227447294
H        -7.14256881735500    6.07160976864730   17.68724601242565
H        -7.43086177839903    7.82437299881738   16.00090484140823
H        -6.44313896711070    9.50535298173935   14.49861491390999
H        -5.41974338022129    8.48328077138568   13.46910557195918

