98
CSD_code = LOQHOO | q = 0 | S = 0 | Stoichiometry = C37H56MoN4 | MND = 5
Mo        0.58675467210168    5.46292141489444    1.28919757172297
N         1.94011131979386    6.98609490420421    2.68716277311885
N         2.81506098727350    2.99126077521741   -2.30628906607904
N        -0.38614221093135    4.85410520288919   -0.02874076582062
N         0.48312353917738    4.47847569581937    2.75757415037649
C        -0.67102228283699    7.25921257863961    1.34542478405849
C         2.64654665423977    5.23070215696438    0.60574733328135
C         3.16063233130702    4.72270881492741   -0.60021459960465
C         4.53149522458974    4.66847608006137   -0.84536745136809
C         5.44535377819539    5.08814029310265    0.09898972506319
C         4.97979342334863    5.57288338160822    1.30771824011080
C         3.61498961782097    5.63771166447078    1.54325530919874
C         3.12094439718763    6.13993037903269    2.86925969982681
C         1.40116784941744    7.30004477976926    4.00744324998917
C         2.35263592034984    8.22656570881039    2.03070105258815
C         2.27330524104321    4.20343325441246   -1.70316896578623
C         2.09004989690940    2.64852387544471   -3.51100619072335
C         2.79845856906571    1.88963437332557   -1.36571107234735
C        -1.23841350972543    4.37656957558837   -0.95000041517730
C        -2.01133340165283    3.21704937943171   -0.67658190050768
C        -2.83709226295330    2.70512384022165   -1.65922830382736
C        -2.94613518078948    3.32043667124217   -2.89521308234381
C        -2.23662769522070    4.47943332586186   -3.15092508233077
C        -1.38447274700835    5.01997943238579   -2.20469678642492
C        -0.65369324760741    6.31377389501702   -2.47715894152559
C        -1.62876157006395    7.48767530665095   -2.34007881372689
C         0.00581601167760    6.33996362613713   -3.85699026144767
C        -1.89135563477057    2.58358052102101    0.68751041810268
C        -0.66101645600202    1.67301707400703    0.73033591662046
C        -3.13310811166900    1.80597071016798    1.11874893497124
C         0.09929793995304    3.50851574589347    3.59874376326760
C        -1.12438682684848    3.61535694915419    4.31447555689798
C        -1.51053336961613    2.59274244671070    5.16057977910169
C        -0.72661503847476    1.46624417892527    5.33488322283307
C         0.48407874447340    1.37089854446443    4.67166982486007
C         0.91272441540707    2.36130482040771    3.80780892193067
C         2.27448097945379    2.27353568850014    3.15504491330424
C         3.35818261569702    2.55858769532067    4.20247451445804
C         2.54579993579233    0.92205123215804    2.49398891071444
C        -1.95833232451570    4.87180114233466    4.20562189964359
C        -3.40380192097282    4.58551231602060    3.79779857456336
C        -1.92865480123122    5.63234068439510    5.53616879290436
H        -0.73203757062292    7.86933245273883    2.25207897188479
H        -1.70871371953133    7.01270779570610    1.09314950568291
H        -0.31829998381412    7.92929851854700    0.54350330167087
H         2.82347988029757    5.28561020848450    3.48779538962137
H         3.91559799139590    6.69276181926531    3.40108504961066
H         2.16821460696402    7.76110656045061    4.64659171051523
H         1.04926861961719    6.38285205567402    4.47888953590993
H         0.56465472005318    7.99222945905020    3.92852599281759
H         1.50132367590936    8.89757314857230    1.91954546979659
H         2.76414478106352    8.00654105786879    1.04177717977528
H         3.12408954130256    8.74532091893837    2.61983261561557
H         1.25401721117198    4.03389299114632   -1.32195914302187
H         2.22636573543370    4.96177383465316   -2.49210413523124
H         1.01439531704298    2.49045766012589   -3.32966741193738
H         2.51024660366485    1.73543965912827   -3.93067311900865
H         2.20664677993314    3.44822732331969   -4.24231598816698
H         3.32599272311586    2.18388074989634   -0.46039243026633
H         3.31089354923655    1.03595997776946   -1.80846078325941
H         1.77595010054617    1.58714532621498   -1.09431611211834
H        -2.08629000953271    7.48735408550296   -1.35366464934501
H        -2.42078949108333    7.40856304472823   -3.08222933723442
H        -1.11028171824986    8.43381379062348   -2.48739853830791
H         0.69158238818536    7.18251697818637   -3.92924359951963
H        -0.73916648797216    6.44733831780108   -4.64197574073225
H         0.56002836314514    5.42223961030613   -4.03729544913943
H         0.23891104693407    2.27340391163044    0.58652507559622
H        -0.72188308905655    0.91381583189555   -0.04870645604252
H        -0.60004237324082    1.18219873916454    1.69913235688188
H        -3.05003801331023    1.55060046831324    2.17334529426899
H        -3.22992324699041    0.87940813529520    0.55693262588119
H        -4.03481269741255    2.39737208976659    0.97313036009780
H         3.14234762414686    3.47630219901828    4.74672673869914
H         4.33210136443309    2.65659131923529    3.72667360957230
H         3.40489423251708    1.74657566870426    4.92535585492443
H         3.50268903321260    0.95356464217036    1.97631049063243
H         1.77194820541228    0.68326430222242    1.77070972141861
H         2.58918084206618    0.12418142757625    3.23153515795813
H        -3.90351135653305    3.96026700719005    4.53396625113268
H        -3.43443137805929    4.08092555348561    2.83669724813607
H        -3.95659353775322    5.51943431968764    3.71409419505751
H        -0.90406851938737    5.81903649924872    5.85192203867910
H        -2.42253865099472    5.05641332018455    6.31573415785171
H        -2.44075906029402    6.58777412223489    5.43912726224612
H         4.86416006676135    4.26892516501939   -1.79139777189929
H         6.50565960273749    5.03800753125249   -0.10000884974067
H         5.67490301941459    5.89731504120183    2.07090562340088
H        -3.41288904823447    1.81305692364500   -1.46630528622342
H        -3.59464857479016    2.90382138301875   -3.65209531055807
H        -2.35139114516563    4.96723723168884   -4.10762756117405
H         0.13063952036211    6.42317662370993   -1.70887112081660
H        -1.71545195619669    3.39930964682610    1.40651423237304
H        -2.44156446868410    2.67464954451524    5.70282227756468
H        -1.04870887115102    0.67565187930866    5.99644786363706
H         1.10576213179925    0.50299046467759    4.83554321895345
H         2.32309170497446    3.04515199523488    2.37172253950963
H        -1.50895148619316    5.50644953260889    3.42560374192857

