95
CSD_code = LOQHEE | q = 0 | S = 0 | Stoichiometry = C36H53ClMoN4 | MND = 5
Mo        0.51975021806729    5.67540874619293    1.48328243904067
Cl       -0.94540453664679    7.52520750565756    1.56607096272860
N         1.84494500030002    7.31966580882430    2.53714696904342
N         2.63653309583337    2.79984599623873   -2.05508863746919
N         0.56402423841848    4.63478126965727    2.91017525500310
N        -0.40018978020868    4.88680394830653    0.22851400429180
C         2.52913874058830    5.29659570355309    0.75874778739852
C         3.53868564167677    5.92414667629949    1.50758273866294
C         4.87712119701714    5.90637649741544    1.14491598621890
C         5.26010582437679    5.26167047173380   -0.01655627393906
C         4.30273663085975    4.60850140204279   -0.76793387684829
C         2.96702433313056    4.59369863352390   -0.37781344641205
C         1.99443766163021    3.78838627988502   -1.20273493656600
C         1.73653315598014    2.35151069714717   -3.09732196805919
C         3.12590794295192    1.67783439880799   -1.28069598296227
C         3.11099643387810    6.62116482858394    2.76863258013651
C         1.32606931767796    7.80842658829298    3.81349629188600
C         2.09881662645640    8.46688453665901    1.66078861279012
C         0.16654608329131    3.60756869320434    3.67463624154861
C        -1.00356074872678    3.73922766496978    4.46566806611371
C        -1.44995652447577    2.65467990597960    5.19817715060615
C        -0.75646873241119    1.45771200752056    5.19873804967817
C         0.40969127569223    1.33782572017162    4.46210031691853
C         0.88371538398771    2.38387615057418    3.69341072608093
C         2.17614842903846    2.29012771969347    2.91617662042083
C         3.32500483639957    2.80841000661457    3.78918706519450
C         2.50011561769973    0.88225088384413    2.42246742043402
C        -1.74328664146951    5.05622199272853    4.46409859413370
C        -2.81072211421673    5.05708495366280    3.36539936583578
C        -2.36791979827336    5.39574850889936    5.81750552462049
C        -1.10669478105415    4.38962276467931   -0.79389116232938
C        -1.71634779136832    3.11331802116165   -0.70196435275781
C        -2.41619472579327    2.61962656789639   -1.78776392643383
C        -2.53578559887117    3.35220596545781   -2.95554869808182
C        -1.95246439582010    4.60401642548589   -3.04771059952855
C        -1.23322951726304    5.13693511070649   -1.99389564588313
C        -0.62396996394376    6.51627991014472   -2.08824588141309
C         0.16934160481608    6.72588383249594   -3.37864790842836
C        -1.72551836900510    7.57251684478901   -1.95943647758727
C        -1.60541701003804    2.31833342019419    0.57668079645586
C        -2.98874120411691    2.06330713368649    1.17982387708113
C        -0.87973461158121    0.99204681191410    0.34652753379615
H         3.77559231672201    2.04453112363573   -0.48874754570381
H         3.70071397303077    1.01821894038341   -1.93026690112010
H         2.31057266328564    1.09643954903328   -0.82295484871285
H         2.81666209655098    9.15900334384251    2.12428900094018
H         1.16715728263591    9.00451945024139    1.47314506254955
H         2.51428370362255    8.12442386776048    0.70767471216174
H         2.75578876815013    0.22394593051029    3.24970664825622
H        -3.22862336055067    4.76372367588880    6.02187797284477
H        -2.45283979339841    7.46363319521274   -2.76156500111206
H         0.81619836463103    1.89595393852407   -2.69966953213023
H        -1.43166527073297    0.35805204901099   -0.34439325209456
H         1.26485710615628    3.31472617980973   -0.52167669127762
H         1.44040233572622    4.47086912639618   -1.85314930786572
H         2.25028131574101    1.61747445916394   -3.71688630659934
H         1.45581067365703    3.19759503710941   -3.72316138422125
H         1.14641327893437    6.96530504843294    4.48282282147430
H         2.94544553138700    5.87079392161444    3.55150727804548
H         3.88555406445651    7.32294440275820    3.12091829685949
H         0.38694773270691    8.33985590663847    3.65301157357597
H         2.04204162594331    8.49213158763305    4.29097694175670
H         1.65604293739953    0.45759587183303    1.88651488666215
H         4.23941404844181    2.89581194945636    3.20605286453402
H         3.50076645331128    2.12864072338496    4.62100457659397
H         3.07837733864499    3.78600955597014    4.19692782463103
H         3.35478723674769    0.91856398456258    1.75057567132062
H        -1.64396807398857    5.26754297248848    6.61964986281629
H        -2.33967693585837    4.90705161976383    2.39018096757308
H        -3.33941936145464    6.00873925674587    3.35484553615694
H        -3.52959020287846    4.25851395891677    3.53739605929784
H        -2.70629901191503    6.43003654727398    5.81794780741144
H        -2.24303534350314    7.46267604882591   -1.00874701727259
H         0.68137540102002    7.68590316988424   -3.34771857529734
H        -0.48686168611961    6.72278469336623   -4.24563988036620
H         0.91575040132034    5.94465226304024   -3.50958017481157
H        -1.29995661509551    8.57326787579516   -2.00744248538438
H         0.11146925645971    1.16941639899691   -0.06558654665653
H        -2.88405802828309    1.63860081238247    2.17574780756873
H        -3.55778466157532    1.36960166955749    0.56446683145789
H        -3.54771653877805    2.99244190538376    1.25438326564866
H        -0.77429195949596    0.46414942385511    1.29193020163632
H         5.61237096705002    6.40070183545514    1.76544407956305
H         6.29428457590181    5.26252255641193   -0.32730355307316
H         4.57716619929913    4.08939569025388   -1.67322587228154
H        -2.35283372145770    2.73986409808196    5.78322276301405
H        -1.11898752506357    0.62164039451517    5.77843901161925
H         0.94976689572299    0.40398032881098    4.48625789077397
H         2.08063678609159    2.95268759007562    2.04244177593876
H        -1.01649314991173    5.84490782244601    4.21590226722455
H        -2.88233576999094    1.64723907218091   -1.72408427989155
H        -3.08873418093099    2.95139624113491   -3.79241480542795
H        -2.06507807795123    5.17071570025534   -3.96024713934169
H         0.07181410062772    6.64067797247108   -1.23415988876260
H        -1.01657860749871    2.90929225717480    1.29235752829543

