113
CSD_code = LOQMIP | q = 0 | S = 0 | Stoichiometry = C46H54N2NiO4P2S4 | MND = 6
C         3.36508465712598    0.74090728391590    5.72546035088813
H         2.43267362541582    0.19988523610836    5.85051505248451
C         4.46616217113492    0.12663342564822    5.15746576365499
H         4.37362728691894   -0.89756246402602    4.83590638446979
C         5.65111321272893    0.83406802283773    4.99769635475675
C         5.65776765793573    2.15244490681318    5.44985496743998
H         6.54496390676985    2.75934337971219    5.35451578550313
C         4.52714105590904    2.69855445147383    6.01851082111996
H         4.52704893100945    3.72066230483969    6.38163496356713
C         6.89527527628262    0.25683446994088    4.39017935175855
H         7.30742559557684    0.99877488599971    3.70168065279124
H         7.63008523808143    0.12343433641917    5.19073674727858
C         6.70595543387071   -1.06705898827337    3.66058336679365
H         6.42446848361565   -1.85951314760658    4.34975998699447
H         7.63698660245313   -1.35659926413708    3.17894873869670
H         5.93842580459008   -0.98108541231081    2.89452030750676
C         4.02166002498279    3.54766773036059    2.67235475828943
C         4.92729503065111    2.61910640093574    2.17335463772973
H         4.73202594692633    1.56892859108154    2.32726531658316
C         6.04485495279581    3.04927454163066    1.47886353053913
C         6.24572494266558    4.41469928589408    1.30422244920553
H         7.12095163383190    4.75277266171252    0.76760183427817
C         5.34417082162671    5.34449170785853    1.79515369479635
C         4.21802409909373    4.89964700378432    2.47969720349798
H         3.50206520003387    5.60834385697799    2.86672616033633
C         7.02937819186006    2.06847388253026    0.91487059257174
H         8.01705048146229    2.22732774671550    1.34719677764541
H         7.11741993113161    2.20250854905610   -0.16228966198393
H         6.71937031078998    1.04569717541707    1.11112415825524
C         5.54834439522071    6.81318923828272    1.58483763956047
H         5.31485660726490    7.36315435803969    2.49377377103004
H         4.88401954392258    7.17215516793797    0.79860910920978
H         6.57286957222278    7.02772711461681    1.29152664535376
C        -0.01962653486164    5.35116281429139    2.98199950810906
C        -0.77017385756039    5.48065894581155    4.13371123911514
H        -0.52605099585396    4.88494840023406    5.00149173430386
C        -1.83873493140800    6.36822495373696    4.17195615781298
C        -2.13381714488498    7.11296810633158    3.04286793225786
H        -2.96306858410181    7.80592408710088    3.06223800487397
C        -1.38412684913217    6.98828510828499    1.87730176786757
C        -0.32031912723905    6.10241444556326    1.85317649236440
H         0.28500371597543    5.97919497617475    0.96817997112028
C        -2.63857818488795    6.50259560720822    5.43220355139681
H        -3.52031441102207    7.11754161341232    5.27097514119906
H        -2.02960496625984    6.96119228666282    6.21072606189688
H        -2.94922274673516    5.52109189766976    5.78708172033877
C        -1.73102771689909    7.80797493462750    0.67155662857200
H        -1.66880351639459    8.86985726867911    0.90572448117862
H        -2.75076306081435    7.59707601294814    0.35233095771365
H        -1.05686147349710    7.59306646752225   -0.15288636579124
P         1.79485468374265    3.82399105095578    4.15629200787348
S         0.67776130049723    2.31155617159025    4.87147299942137
S         2.46175980800204    5.21663817681585    5.39733146319112
Ni        1.83104160863575    2.83194018057835    6.82150793661085
N         3.38991651308398    2.00595029470381    6.14865489544849
O         2.93787474805761    3.02845168666347    3.34882470676220
O         1.04119905895503    4.48076884229936    2.88383793835717
C         0.29708335854524    4.92467872558517    7.91324598244246
H         1.22948609307652    5.46543722406656    7.78691595940570
C        -0.80435280056449    5.54055616841278    8.47873855662731
H        -0.71224335892732    6.56583345226527    8.79697336427851
C        -1.98925808933479    4.83339512885515    8.64034713098839
C        -1.99536312666559    3.51346807625341    8.19280408588387
H        -2.88228781612616    2.90649599167372    8.29014288797368
C        -0.86446559018430    2.96586049402016    7.62601177231617
H        -0.86404259468316    1.94257479977435    7.26617076795099
C        -3.23382240597748    5.41323145245069    9.24458456805633
H        -3.65354551162562    4.66965601561527    9.92665720137563
H        -3.96354515571512    5.55508259390495    8.44079657532408
C        -3.04156874562736    6.73213540615302    9.98255495305135
H        -2.75571639711271    7.52781808471057    9.29894293920494
H        -3.97268794182315    7.02209568248340   10.46375939870281
H        -2.27604342566218    6.63880171612823   10.74976301493268
C        -0.36054342980862    2.10989651236994   10.96706047622139
C        -1.27051305586818    3.03619201493106   11.46238341537893
H        -1.07801091179167    4.08681796152501   11.30802208474507
C        -2.38888240868845    2.60328922637360   12.15384860760783
C        -2.58616984831982    1.23741233747314   12.32916275281648
H        -3.46197584193208    0.89723235163123   12.86350315723756
C        -1.68043811650608    0.30988366559611   11.84168382588342
C        -0.55350776313794    0.75751317267104   11.16024139568334
H         0.16569102838554    0.05059005978598   10.77600114066660
C        -3.37836969326133    3.58162386364444   12.71335747330573
H        -4.36303961922595    3.42171520506235   12.27465348584738
H        -3.47280914241474    3.44589094672889   13.78972050516081
H        -3.06886803847293    4.60514548269046   12.52031821390706
C        -1.88094785383081   -1.15929626968420   12.05213344116771
H        -1.64485992052590   -1.70873904789838   11.14354413917043
H        -1.21664170217413   -1.51641864145558   12.83920516092573
H        -2.90527456660559   -1.37652233896275   12.34413935516735
C         3.68458165824642    0.31226636699379   10.65788979722934
C         4.43458016141930    0.18434958658182    9.50564988520012
H         4.18927241228151    0.78031858755741    8.63838612838318
C         5.50405472342923   -0.70206047673480    9.46614524279050
C         5.80067114997577   -1.44719487222063   10.59457440258154
H         6.63061960188666   -2.13928947231279   10.57419681544003
C         5.05162292240392   -1.32401517120905   11.76071707769269
C         3.98684871058451   -0.43934124886515   11.78606451812842
H         3.38191859308780   -0.31736165260418   12.67150315381684
C         6.30306180378822   -0.83486666325604    8.20519828698608
H         7.18544896553014   -1.44916766946191    8.36529663425828
H         5.69385667807923   -1.29343970514893    7.42683555689607
H         6.61259205189346    0.14712463988759    7.85070291100117
C         5.40011238860390   -2.14412777280969   12.96572237474455
H         5.33764264406517   -3.20592841562416   12.73122411146503
H         6.42023153150284   -1.93331160043365   13.28375859789602
H         4.72694812626044   -1.92959629738207   13.79108369329600
P         1.86800668939225    1.83832119550302    9.48543784996500
S         2.98276093350512    3.35324594263457    8.77209794642297
S         1.20268250873848    0.44666944286511    8.24249828366385
N         0.27254545649573    3.65833933568369    7.49383073323222
O         0.72395415641253    2.63161428079876   10.29363792902867
O         2.62261656366125    1.18114135461960   10.75714513590579

