51
CSD_code = LOQNOV | q = 0 | S = 0 | Stoichiometry = C24H21ClN2O2Ru | MND = 9
Ru       -0.02631536206084    1.68545204070816    5.30055316488460
Cl       -2.20131163375297    1.27506046088681    6.06158561091414
C         1.57940245273909    0.00348082613060    5.45609523762667
H         1.68389586053501   -0.95951114692805    4.96759729613399
C         0.95839096529221    0.09777416118460    6.70194867289238
H         0.55350483177007   -0.78586884918281    7.18189657084593
C         0.94475604765287    1.34027221736389    7.39842345851141
H         0.52810624567441    1.38525427816206    8.39812208078332
C         1.55168265930833    2.46241090060357    6.83533540117650
H         1.63516960018405    3.38344014103239    7.40228322347346
C         2.10743816436813    2.39332965852485    5.52870898445338
C         2.75504945737937    3.57275008029490    4.86000278706792
H         3.84321559990942    3.49813256942306    4.99019362090121
H         2.42744904859756    4.50882135185364    5.31683763176371
C         2.42780553408498    3.55150787315565    3.38454443236886
C         2.11197774392698    4.85899041437873    2.72536486385834
H         1.41611168382249    5.43208289829340    3.34844840689627
H         3.02832241311097    5.46003611252083    2.64962821028106
C         1.52454966564421    4.67158924234961    1.36029134618892
H         1.07246861662254    5.54638211897373    0.91800146954146
C         1.53719909418539    3.52047287832474    0.71429800206788
H         1.09116911677438    3.43349284214299   -0.26452678960670
C         2.13691969709454    2.26735008507212    1.27304311896229
H         3.05921911916185    2.02788920397412    0.72670154666981
H         1.45094113217519    1.42952263099276    1.10547768681015
C         2.44062120182154    2.39218105639616    2.73431793706391
C         2.78339760258917    1.12818929831795    3.48892229604310
H         2.47429775231872    0.24492926086970    2.92642489131187
H         3.87168163859301    1.07435277343129    3.62825357193382
C         2.12399886235402    1.16163142560910    4.83859395859659
N        -0.70360462630961    3.42492054946075    4.66379773804970
C        -0.78365637932044    4.44896183335994    5.50624644287960
H        -0.56842332932382    4.23886493779466    6.54605685159149
C        -1.16232876898594    5.70968106957120    5.08697530653923
H        -1.22084515573986    6.52168888766643    5.79337514114813
C        -1.45748395521053    5.90021917254670    3.75367506431038
H        -1.74655022147858    6.86509030227611    3.36900655606041
C        -1.42405973339480    4.82647811491026    2.85201738820811
O        -1.73740003361623    5.07220624828733    1.60887858359204
H        -1.69607704857443    4.18405581655048    1.01598789527915
C        -1.04493064843033    3.54984101661242    3.36204828086940
C        -1.02540777385676    2.26935623890482    2.66656709023089
C        -1.36001528935669    2.01299274654748    1.28566293379369
O        -1.62151941829470    2.91040602080398    0.43778216493422
C        -1.36996264134115    0.64251695481460    0.90123619458034
H        -1.62577927554506    0.42601516284453   -0.12419463579991
C        -1.09382398494743   -0.35167264477438    1.79975417458354
H        -1.13174303585703   -1.39149884742113    1.51465533882784
C        -0.74680896072513   -0.00818746444808    3.10146167408976
H        -0.54216170676925   -0.76230067523647    3.84998634144869
N        -0.69483282480252    1.25556575406898    3.49155478436733

