50
CSD_code = LOQPEN | q = 1 | S = 0 | Stoichiometry = C24H22ClN2Ru(1+) | MND = 9
Ru        4.43163460273765    9.55801397359155   -1.52860543819224
Cl        2.27220887906514    9.79783564011467   -0.69401545312535
C         3.55519092272314    6.91092929412173   -2.36989297521481
C         5.43643844511894   10.46858492449084    0.43313259668632
C         2.99875850571108    5.96111141335247   -3.20432697506887
C         5.34972801095334    9.06032330014160    0.61487449366265
C         2.52443657238825    6.35376831221561   -4.45112410937645
C         5.94352144708935    8.19872220719821   -0.30678520878402
C         2.60300932670575    7.68877363717658   -4.79872899180224
C         6.54872919702813    8.72024280922855   -1.47987079586064
C         3.17179261426824    8.59440532480396   -3.90613015561778
C         6.63464579213785   10.12030930408028   -1.66068895328921
C         3.25954531186028   10.03350225687602   -4.09151164049469
C         6.11516709689742   10.99077599599578   -0.66733742721559
C         2.78940898686960   10.74566615003462   -5.19253049069885
C         7.15204157033117    7.85504719502459   -2.54936036981143
C         2.87633445024507   12.12470110668065   -5.19446237635831
C         6.78525667481597    8.43593885846867   -3.89661569056467
C         3.41323865525894   12.75982211045506   -4.08002180228720
C         6.86596090415980    9.75308874718065   -4.06672257727882
C         3.86504095569935   11.99200683001867   -3.02436418009271
C         7.32092680065017   10.60757890550413   -2.90486309924643
C         6.35680082706806    7.49699599505646   -4.98199738297683
C         5.68613640316558    8.22272607521436   -6.10790633771518
C         5.76606844866340    9.53025284634064   -6.27668629127326
C         6.53618938118728   10.43140861325569   -5.36070918828143
N         3.66758072638715    8.19275908022167   -2.71379301817337
N         3.81812952413288   10.66095831958467   -3.03175494851036
H         3.90195790526246    6.64310196450274   -1.37950608062934
H         5.04429946417593   11.12832570754123    1.19843789531707
H         2.92924803257170    4.93576624590262   -2.87970288498240
H         4.89272104909529    8.66800029601224    1.51596987327476
H         2.08638020594782    5.63435127626901   -5.12397552329997
H         5.98342415944897    7.13243526097686   -0.11199501267771
H         2.21915729205461    8.03353007509930   -5.74399383068583
H         6.28614739728654   12.05881639981674   -0.74818486341797
H         2.35252674280494   10.22179358718291   -6.02583773859925
H         8.24360306633990    7.86625873879477   -2.43817777144129
H         6.81785960134020    6.82036363092386   -2.45999613391333
H         2.51712904689458   12.69792006489834   -6.03385579776780
H         3.47157933209812   13.83464219680926   -4.02596478413262
H         4.25659766216508   12.45786705040428   -2.12852351062085
H         7.11508052759667   11.66362602697803   -3.08541378768780
H         8.40481031007351   10.49355750858237   -2.77761769924669
H         7.23434383515010    6.96501095809513   -5.37028450348168
H         5.68553752269147    6.73079356117883   -4.57901688573797
H         5.13583370876421    7.60632316179933   -6.80306265179837
H         5.28293870964035   10.01215997086922   -7.11356986821238
H         7.46491293609255   10.73904188477346   -5.85736442744905
H         5.96769045918595   11.34916520616042   -5.17476522584817

