135
CSD_code = LOQRUF | q = 1 | S = 0 | Stoichiometry = C51H70F3N2O7STi(1+) | MND = 6
Ti        1.30648114018154   19.67178997346397    8.21864077035071
O         0.11528647047130   19.53067843011191    6.48340921076086
O         2.81634880989207   19.49569965465787    9.66658747607508
O         2.88220405178473   18.70883882470847    6.87898473346429
O         0.82778085444368   18.07677192797759    8.60164146200017
O         2.17118915386608   21.16425475491903    7.47927107013609
O         0.28418498033178   22.73958469979318    7.49390958527985
O         1.91260050540505   22.73549395066704    9.34843120650343
S         1.59387428946353   22.42206900942949    7.98583577338468
N         0.21547168375534   20.61132889210260    9.17344700710761
N        -0.82299300544312   20.86790560468696   10.04337539555313
C        -1.39533741866484   19.60399124128751   10.59609243264478
C        -0.35155635005505   21.70719585520026   11.18207018382901
C        -1.91258808164778   21.60898007702853    9.34568799322952
C         0.36892939301890   18.43667926590685    5.63459262218876
C        -0.25349306974918   17.20586392065914    5.84689206312848
C         0.02309216397839   16.15850048206595    4.97930254356836
C         0.88222439519162   16.29412491344057    3.89492988772743
C         1.48958599960649   17.53018995599174    3.70996999337360
C         1.25309157352537   18.59956037680716    4.56624981202977
C         1.13248664293563   15.10392243810153    2.98472214644499
C         1.75117856843242   13.97102074867559    3.81667759675601
C         2.08532310273070   15.43261354788993    1.83292104682349
C        -0.20317192426617   14.64226877890449    2.38576891144778
C         3.69110636321840   18.39878654833024    9.55189840613110
C         3.37304776837562   17.16298742043962   10.11135442156532
C         4.27549645037370   16.11158331080119    9.98220678446565
C         5.49034568231278   16.25571319945681    9.32953580269554
C         5.77667391286519   17.50067514645912    8.77335644808866
C         4.89777011202862   18.56904058186434    8.86572641787528
C         6.49292173243169   15.12321497481041    9.18761500642171
C         6.69597303993609   14.82785031924316    7.69427937031470
C         7.82403065013097   15.55017181809364    9.82142530192795
C         6.02595209727398   13.83657621816224    9.87229459377570
C         3.74137348295727   19.55958321197700    6.15937264328584
C         3.38342506858001   20.00153361672859    4.88194308710043
C         4.29516891509738   20.74627742568218    4.15034570761247
C         5.54697190792253   21.09036797195236    4.64574889465470
C         5.82841333796301   20.73049627363711    5.95437180583687
C         4.94323605968189   19.98825743898590    6.72610861860625
C         6.49870266796067   21.90863665757327    3.79071116244193
C         5.87263852169051   23.29213216068956    3.56493510528495
C         6.71347480872202   21.20321588641512    2.44446962221123
C         7.86635514087826   22.09783507755827    4.45221028060346
C         0.52392220763468   16.81199607543450    8.84724405660951
C         1.12941668676203   16.12557270969835    9.91081461282405
C         0.84565488950381   14.78560636136302   10.11399366324955
C        -0.05443808901496   14.09656854849287    9.30927320640456
C        -0.70612216639972   14.81402263752041    8.30777736475993
C        -0.44484841797854   16.14990342689197    8.07400558143491
C        -0.37153389497178   12.62135363386774    9.49780050282216
C        -0.09093454299854   11.87668012667712    8.18451520476494
C        -1.85208059273755   12.47103781634160    9.87422325561758
C         0.47113142862196   11.97456651655062   10.59991834120924
C         1.97015706736830   19.90201592831552    4.34279986241485
C         5.23929307275579   19.87725491167146    8.20874721093575
C         2.05974155671627   16.91022361702749   10.80800219734178
C        -1.16711461607296   16.95831550275240    7.02077063172177
C         3.10576777820523   20.29087808832761   10.82008595027954
C         3.18967982913672   17.34083812722606    6.60758399372608
C        -0.96027571256659   20.34036736498834    5.99897909600493
C         2.73219774488064   23.52920023466855    6.97691027288255
F         2.56009175450822   23.22788099012530    5.68336442388219
F         3.99995369748099   23.23270237176323    7.29112154846177
F         2.56920339107133   24.84106504615291    7.11946750419415
H        -2.22637231465018   19.81585418854259   11.26678109353039
H        -0.60927395834243   19.06777557079529   11.12753603159259
H        -1.72728644675390   18.98025209182542    9.76560297388955
H        -1.18905593542159   22.03212826876779   11.79585835943977
H         0.18069561681406   22.56249472790025   10.76675261312925
H         0.34682609212495   21.12657687308431   11.78136449765507
H        -2.67500185881442   21.93157546425397   10.05174424854616
H        -1.46198967777269   22.46492041800362    8.84368416331222
H        -2.35256070869744   20.95734814330544    8.59327237849166
H        -0.46026179804233   15.21314880730575    5.16866790940324
H         2.17233375644663   17.68863252499509    2.89097733619634
H         1.94321178757329   13.10930268240488    3.18261410993808
H         2.69414120153933   14.29352093128846    4.25403539953602
H         1.09134207019586   13.66050318559644    4.62175687272956
H         2.21917670147584   14.54894018855357    1.21384845894329
H         3.06399339311062   15.73086514947836    2.20183401049412
H         1.68189933809747   16.22202134905494    1.20354636986844
H        -0.03696135251400   13.80807091849118    1.70906350701908
H        -0.66560643933429   15.45184510543759    1.82579199089297
H        -0.89641832859705   14.31911061916350    3.15664498736490
H         3.99841713618254   15.16674336761349   10.41835430930084
H         6.70478820659904   17.65673020475699    8.24462072324965
H         7.39864424267157   14.00762377561948    7.57213015707918
H         7.09040446967827   15.69127636087461    7.16571485899309
H         5.75169373105077   14.54329596808403    7.23359034871621
H         8.54440398735258   14.73921803231664    9.75143262128909
H         7.68088606481565   15.79278483195732   10.87192455784788
H         8.24444073889230   16.41893544606794    9.32343544893706
H         6.78228795166076   13.06613931641935    9.74402301248765
H         5.88417776780113   13.98997571905910   10.93918712816679
H         5.10005220847108   13.47148199405979    9.43400018032913
H         3.99741992112281   21.09110912197349    3.17250738518080
H         6.74649134154872   21.05400963920395    6.41564369119263
H         6.54313857074441   23.91244488054274    2.97524571391229
H         5.69590431084506   23.78369386328592    4.51883684447514
H         4.92393517337584   23.21760816333259    3.04088851435858
H         7.41519046322367   21.77025567631668    1.83800045974058
H         5.78666675278284   21.11091398034419    1.88609828606524
H         7.12158824120881   20.20688617232736    2.60081385191542
H         8.52281102659404   22.63749148270352    3.77382016334443
H         7.78461145133964   22.68069175353162    5.36614026952889
H         8.32894214997227   21.13911155121509    4.67588122923082
H         1.33516814014535   14.28471227607457   10.93312035512917
H        -1.45117773802574   14.32595465607117    7.69782641732992
H        -0.27638232926709   10.81321430447791    8.31292244258531
H        -0.72684758867377   12.23393525744766    7.37961231333240
H         0.94713924861634   12.01216700055462    7.88788664629980
H        -2.09291032114607   11.42191185500999   10.02656128134032
H        -2.06326190200466   13.01049307965234   10.79485846535345
H        -2.50178144348687   12.85895730086590    9.09481725189140
H         0.22294405876269   10.91825693589303   10.67028749829134
H         0.26887926221192   12.42791610855911   11.56717523204637
H         1.53302051138951   12.05494629013156   10.37936405949462
H         1.42728555022350   20.72363014025437    4.82547387442012
H         2.00078020765429   20.10648381662795    3.26998307777531
H         4.67311877290259   20.69528439259612    8.67072900643510
H         6.30220483304540   20.07982292385367    8.35957232161203
H         1.57446659074230   17.86450569784358   11.04474926465625
H         2.23493187596412   16.35262371241098   11.72972200031741
H        -1.46629174745222   17.91301357092971    7.46965028275228
H        -2.05566468824362   16.41857074241927    6.68846256646418
H         2.64756012980033   21.26884836010130   10.65690920729548
H         4.18752930989288   20.40922420633331   10.94351897884769
H         2.70572536277396   19.81697564291808   11.72591395268390
H         2.49433144983535   16.72766160717173    7.18095311694682
H         4.21439170681438   17.10247882744954    6.90764282336306
H         3.07411599886263   17.11759112414244    5.54284185055533
H        -0.87672820616035   21.31129178337384    6.49156080147136
H        -0.88396192624098   20.47252831430850    4.91454414672717
H        -1.92724688679909   19.87047894348416    6.22075481101632

