126
CSD_code = LOQREP | q = 0 | S = 0 | Stoichiometry = C53H66N2O4Ti | MND = 5
Ti        9.69806408674405    1.73417143557914    5.36104264180291
N        11.25661202426490    1.01617526322259    5.40344981354637
N        12.59410854691486    1.02548795864046    5.48430218784468
O         9.50635386652674    1.70637970087439    7.43663678774168
O         9.75968440838069    2.01990872025066    3.29795664467732
O         9.29960106874380    3.46274976247300    5.46772600360450
O         8.58762579514732    0.32007172718212    5.18581333316605
C        13.25339807841314   -0.27092246288630    5.43526305335736
C        13.32857321803038    2.17513545920530    5.59974741624270
C        12.66439109364673    3.41729682874649    5.64211209541629
C        13.36607872269075    4.59483743668020    5.75557003058044
C        14.75335543839078    4.58412652019858    5.83183905960135
C        15.41951245468230    3.36766147958769    5.79271501655252
C        14.73346404024809    2.17674402009972    5.67903723168877
C         8.30940725138419    2.27546085334814    7.88587687932453
C         8.26075318742150    3.63848144250867    8.19164844756142
C         7.05172151304396    4.19504274108095    8.57861250449862
C         5.89002499315324    3.43880970710691    8.69176853471931
C         5.97449052292062    2.08554834609794    8.40285494128268
C         7.16359844172086    1.48963273476428    7.99692008336915
C         4.59293666840996    4.11651906910377    9.10502927028576
C         4.26135527058635    5.21132009688796    8.08122017490251
C         4.77146535236112    4.73937867238522   10.49644387027550
C         3.41154201697166    3.14443781660419    9.16161536447695
C         8.62070750857896    2.65815117341267    2.79411694692277
C         7.50636309953414    1.90317302605351    2.42378669392633
C         6.37604295400967    2.56406404660470    1.96574715380979
C         6.30791625549374    3.94971025534903    1.87852509495700
C         7.43197290148848    4.67276282850747    2.24930731433009
C         8.59224147403635    4.04971702423190    2.69270249312624
C         5.01898466385895    4.60435572818608    1.40666559860096
C         3.88867304234669    4.21264287777011    2.36913527009150
C         5.11206537865908    6.13207412923294    1.37441640594315
C         4.69202752110991    4.11339721099677   -0.01038725709655
C         9.37721587123108    4.76857918928233    5.57058649269108
C         9.51095388288823    5.58010498877197    4.42717731708487
C         9.47281718514539    6.95432479527531    4.54907775708410
C         9.34244816722821    7.58731149043455    5.78256093009886
C         9.32974219423152    6.78044094684930    6.91304466679125
C         9.36717292298892    5.40017149266182    6.82732426796724
C         9.25921427390447    9.10535618875360    5.84152474534529
C         8.06387324184186    9.57398207231794    4.99887007243017
C        10.55547232534946    9.70746157928888    5.28184606786757
C         9.06579103987016    9.62970762997299    7.26713000265710
C         7.28787395247737    0.16692525887612    5.09353895658637
C         6.63940655540868    0.12451252718529    3.84243944327437
C         5.27861397210228   -0.10988252897655    3.75703090003436
C         4.49460043160820   -0.32442705558506    4.88206974137260
C         5.13703490224671   -0.28892265300117    6.11601192663679
C         6.49170989029884   -0.05503447203093    6.23814678613246
C         2.99807344296281   -0.58998687657154    4.82044469797876
C         2.45074488736293   -0.54978428531577    3.39106711842802
C         2.70818170579328   -1.97988739098889    5.40401693456913
C         2.26228286456164    0.48015020464664    5.64021136062933
C         9.46889854601127    4.52755432786431    8.05701611514436
C         7.15530093234953    0.03582901615538    7.59212229029730
C         9.76586956559548    4.90022456905229    3.10218335653516
C         7.46305321341752    0.40615382091233    2.60730517418146
C        10.30507610190793    1.14326889143869    8.46662064945430
C        10.68283804995880    1.60609391202821    2.30167870320949
H        13.92545851366888   -0.34254242274967    4.57485839924018
H        12.46897339797733   -1.02314374123022    5.34101986768445
H        13.82552577815076   -0.46009470020103    6.34841681636585
H        11.57970408552643    3.40037138317034    5.58177650390186
H        12.82643778506676    5.53231166899061    5.78477662711323
H        15.30564364819962    5.50722130570630    5.92043911133161
H        16.49928727470497    3.34797091944910    5.85218132928032
H        15.28890331270127    1.25255501141732    5.65215008418744
H         7.03453244497687    5.25430009417452    8.78666387807744
H         5.10339885306460    1.45610070959922    8.47121483461772
H         3.32248870669052    5.69599110088385    8.34102050855493
H         5.03838794021980    5.96949669117018    8.04462046025059
H         4.16409119368825    4.77695973991061    7.08844080396675
H         3.85048850092243    5.22657076882629   10.80956609667055
H         5.56625483676487    5.47977099290607   10.49922894897889
H         5.01950526826925    3.96956096135943   11.22426263746187
H         2.51306851237077    3.68305879595501    9.45625123845056
H         3.58538403308256    2.35824809106655    9.89274313951478
H         3.22989459070080    2.69611407337448    8.18769579907871
H         5.52333179285789    1.96399392979352    1.68881821184329
H         7.43456199629014    5.74981965885418    2.20966217809523
H         2.95579702055650    4.68255755191601    2.06441574179805
H         4.12803430827879    4.53921017552233    3.37899796337434
H         3.73930008735661    3.13677236239360    2.38865281419762
H         4.16385453620460    6.54602320912561    1.03718270613368
H         5.88625473498289    6.46207998445324    0.68567220923356
H         5.32015476048820    6.53151400537203    2.36409499055729
H         3.77919329438248    4.58477162848529   -0.36833787613524
H         5.50139863262564    4.36663277520767   -0.69196712459684
H         4.55037527086853    3.03670211879204   -0.03463040134553
H         9.56390915111238    7.54592705665169    3.64881284900947
H         9.30624194487227    7.22098683585373    7.89788208354638
H         7.97251688713021   10.65760975125791    5.04261108306391
H         8.17619670304302    9.28465513336145    3.95778066572805
H         7.14336497193524    9.13355723789213    5.37689688632693
H        10.51908065082605   10.79411172637509    5.33143899745721
H        11.40944561223078    9.36260979478847    5.86097701305709
H        10.70904455496355    9.41805443236593    4.24596952352042
H         8.97404810580438   10.71413229357501    7.24668530143034
H         9.91640571136190    9.37766622676426    7.89595756134757
H         8.16013552418289    9.22315411964893    7.71168025376708
H         4.83701467125933   -0.13832450750373    2.77292138433906
H         4.56977417935642   -0.46367378314925    7.01946428379660
H         1.37889674343187   -0.73879423978261    3.40597943407159
H         2.91697638453766   -1.31276768006442    2.77213062999775
H         2.61312395840470    0.42624485181664    2.93908956633612
H         1.64150621283012   -2.19247998550943    5.36334811733753
H         3.03049048685517   -2.04690335220299    6.43944578915829
H         3.23559410376404   -2.74234096700697    4.83465155410874
H         1.18588036479907    0.33367743189566    5.57327549433185
H         2.54433841645944    0.43715329103308    6.68857826563287
H         2.50117289751011    1.47243403477190    5.26215069046271
H         9.55883187414575    5.15944943349383    8.94407632446664
H        10.37840164680317    3.92181819572851    7.95971212468192
H         8.17256885385071   -0.35853600678925    7.50397780825428
H         6.59802999270992   -0.55183291476392    8.32545266841312
H        10.66423150828036    4.28078181871614    3.21450813775783
H         9.95302457117972    5.65735158718456    2.33663825833233
H         8.46558460585117   -0.00548020325467    2.76094626690104
H         7.00542296067050   -0.06340377626331    1.73339380913565
H        11.16003754591508    0.68405764197921    7.96441047161118
H         9.75032874364333    0.38435325807138    9.03199896650901
H        10.65155020557739    1.91717230830582    9.16391099866519
H        11.10881160125563    2.47086988956576    1.77635769190002
H        10.20656064578121    0.94755031399029    1.56498038385833
H        11.47159891735137    1.06592863814671    2.83095658817860

