133
CSD_code = LOQRAL | q = 0 | S = 0 | Stoichiometry = C58H68N2O4Ti | MND = 5
Ti        6.80281405716040    3.10054870638717    7.00582778405969
N         6.45423710556192    2.29943538310557    5.51143821712953
N         5.62099417253053    2.49417870159050    4.46733562338608
O         8.83625104969384    3.23431687245501    6.59940664041637
O         4.74357089235738    3.20173324132068    7.51908205988140
O         6.78801976073711    4.84508983346395    7.09832697406456
O         7.04281936317042    1.77446082751437    8.19058496526477
C         5.01551022601080    1.39710581598459    3.87567405484088
C         5.03321388383939    0.16572663361843    4.55031840194445
C         4.46940538804213   -0.95308865380297    3.97722738588112
C         3.88016759108153   -0.88212934775996    2.72312109497793
C         3.88332359741436    0.32535965261421    2.03879045692457
C         4.44713179263295    1.45366544565923    2.59563210989336
C         5.29552749899945    3.80999210721617    4.13219317174589
C         3.98534970482206    4.20880177856645    3.83685074455673
C         3.70061178301625    5.54199109426969    3.61578681038018
C         4.69987820074143    6.50192357991989    3.67878980529655
C         6.00361395498273    6.11394850379874    3.95461317593716
C         6.30011977328387    4.78647418525275    4.18391548641432
C         9.52318674257973    3.89004132830447    7.62696392139724
C         9.69675109904275    5.27714245369191    7.57199282784389
C        10.31048961069403    5.91782125018053    8.63701839674809
C        10.78783015879841    5.22518960861228    9.74452633079281
C        10.63459159755220    3.84762671635487    9.75363934071839
C        10.00367704340956    3.16662747687560    8.71830054110386
C        11.43125473163103    5.99232726111976   10.88872614334311
C        11.90241886361208    5.07578014179034   12.02095705838276
C        12.64615089549693    6.76665785621858   10.35957670842165
C        10.39712681667875    6.97075019333890   11.46347486272314
C         4.58874274769902    3.91559951268521    8.71357626230447
C         4.64218272881908    3.23561660306576    9.93295631729617
C         4.52905797874647    3.96309650545334   11.10825133334855
C         4.35989615108533    5.34301711127792   11.11505368019389
C         4.28540846821716    5.98694522454209    9.88890967505871
C         4.38345754589838    5.29572787289513    8.68662863274925
C         4.28263630910608    6.07780975587363   12.44414610920075
C         5.60303748932372    5.86232564402838   13.19744981335592
C         3.11415450747027    5.51864599090892   13.26748753369141
C         4.06780478113636    7.58373632140209   12.27237446159206
C         6.78301945428815    6.15350864553468    7.03149862147525
C         5.59023019529654    6.87335268647070    7.21640596213758
C         5.59823070429713    8.25552149259988    7.20010163601052
C         6.76468666483348    8.97761804389709    6.98101297684529
C         7.93062828930102    8.25457348478479    6.74260788656484
C         7.95912929852235    6.87395062025690    6.75139425901243
C         6.80938041590470   10.49843699666233    6.95738073793003
C         7.23513541930411   10.96581626246804    5.55835351011497
C         7.82266230793257   10.99255014917783    7.99988235242094
C         5.45350166863365   11.13271213277501    7.27908681877247
C         7.33932754522418    1.64143857314324    9.46221470675036
C         6.33144897781698    1.55107660093173   10.44550510762600
C         6.66110658753171    1.35184167511802   11.77069868057959
C         7.97883169887936    1.22322242758897   12.20012297040852
C         8.96924348320681    1.31203352788537   11.23176198481552
C         8.67377039956250    1.51225576326205    9.89513712597538
C         8.27157602021244    1.00214218657602   13.67636768855860
C         7.68265866824596    2.16614494952733   14.48707707613955
C         7.62996258873266   -0.31814752262142   14.12512010532310
C         9.77153142733329    0.92904015019483   13.97518395100543
C         9.76493183878513    1.68324778734649    8.86499666349795
C         4.90098096985245    1.74971317656130   10.00714336525155
C         4.32475093636456    6.07054298799679    7.39503262374301
C         9.21157804758589    6.10090540954744    6.40703509328071
C         9.66058878058775    2.65678876818428    5.59612224669728
C         3.52361117835044    2.65114670013196    7.03466552108362
H         5.51075267738034    0.12928647165502    5.52315165043036
H         4.48482376233748   -1.89228265709506    4.51224501076860
H         3.43546651052171   -1.75921333394845    2.27765266032870
H         3.44865434845508    0.38287163777462    1.05063734705020
H         4.46975135267808    2.37861216388429    2.03887805692796
H         3.19529938341786    3.47231858935574    3.80147047775675
H         2.68292331698254    5.83875253107224    3.40336997539254
H         4.46646724363754    7.54258377529966    3.51369311572115
H         6.78776215604152    6.85671690277375    3.98901566755208
H         7.31543193746574    4.45690673741827    4.37743922669398
H        10.40731383720212    6.99174520047257    8.58356988546560
H        10.98859281259455    3.26282117524637   10.58568692210721
H        12.34775637200070    5.67623241104533   12.81164000372391
H        11.06800743403060    4.52430913526176   12.44797807521083
H        12.65446709510792    4.37320835108709   11.66940796136578
H        13.12846110547222    7.30637033604606   11.17168299418175
H        13.36924732829643    6.08021993347976    9.92400124978898
H        12.35672795105688    7.48574878326909    9.59872481517662
H        10.82603097300962    7.52379546865520   12.29648168619270
H         9.52615142056324    6.42546267202171   11.82149047762941
H        10.06585317115854    7.68382915487723   10.71380702742134
H         4.58981094724994    3.42189521053767   12.03961838165008
H         4.15339539035443    7.05511046811279    9.83285209232015
H         5.58068896390573    6.38396525433013   14.15199412644909
H         6.43426321972033    6.24837864637340   12.61089107844672
H         5.78394256241532    4.80815880229020   13.38737742137637
H         3.03354799970998    6.05225705722008   14.21205758813393
H         3.25010696383390    4.46333651634990   13.48538658508316
H         2.17976953527702    5.63751762120890   12.72298783285370
H         4.01956774887801    8.05680118371157   13.25113923232458
H         4.88932323286876    8.03510778822324   11.72126418467316
H         3.13415651600773    7.78829387771447   11.75362860491155
H         4.65904236987096    8.76491484506779    7.34945296116874
H         8.85115328349619    8.77888860360189    6.52568951534154
H         7.25417949557904   12.05299501607449    5.51251272014340
H         8.22462105038510   10.59642859380028    5.30343006374078
H         6.53311433022252   10.59965027888943    4.81226907683366
H         7.84917262944845   12.08040464851647    8.01389741835731
H         7.54291767048745   10.64057576788187    8.99082077834768
H         8.82392439627938   10.63229447499673    7.78087968812216
H         5.54784747694805   12.21703184998284    7.26977191835390
H         5.10725120758806   10.83307716884888    8.26563967605366
H         4.70670373010556   10.85511104811399    6.53917231408569
H         5.85484436589776    1.28162656460583   12.48756471037467
H        10.00813601215003    1.21179952372068   11.50515756076457
H         7.92152372797338    2.05026269873316   15.54249356445746
H         8.09433569310115    3.11234713198170   14.14082902743741
H         6.60135482469040    2.20835742613951   14.38892193665320
H         7.83175131160496   -0.49762682173951   15.17943983848354
H         8.03601213639094   -1.14649299276440   13.54850662388189
H         6.55309830630798   -0.30142445811146   13.98148606711823
H         9.92301171695176    0.77720655303951   15.04228668485564
H        10.27167066939516    1.85302313295913   13.69333041435951
H        10.23458862526429    0.09737342634311   13.44948468141368
H        10.68073555422245    1.18831301681134    9.19618390016262
H         9.42545195238208    1.23520922113851    7.92589897874047
H         4.21870416217835    1.29108772141073   10.72685213323451
H         4.77150989602737    1.27609923107374    9.02929878109792
H         3.46120316427028    6.73956254888374    7.40516908045770
H         4.23862003812007    5.38666599541789    6.54302464743053
H         9.99716021428445    6.80103121376015    6.11086043290044
H         8.98528170717412    5.44893976602126    5.55761813622308
H         8.98289811831434    2.09449899979669    4.94530739391910
H        10.40977404760632    1.98308161189228    6.02806534824486
H        10.18158772103513    3.43479060633212    5.02175730834533
H         3.78189551911558    1.92436964790854    6.26320029457402
H         2.88721795168662    3.43611220233656    6.60648210462057
H         2.97147002406582    2.15194300506900    7.83938821930695

