73
CSD_code = LOQSIV | q = 0 | S = 0 | Stoichiometry = C22H46NiO2P2 | MND = 4
Ni        4.25793005180863    4.92228799182352    0.99086080248921
P         3.68939794696666    3.23425267997448   -0.21468885793151
O         2.97181802362131    3.77677219754399   -1.56386581154252
C         3.42306263031731    5.87713888514540   -0.47512200787888
H         2.42231693470894    5.92147619972749    0.00879446483573
P         4.63508596750511    6.93713108327530    1.63670623056321
O         4.12622101992742    7.96593960191835    0.49086331999441
C         3.21040098341175    5.16768777534293   -1.80552272433925
H         4.10145841007427    5.26563808878043   -2.44187214276578
C         2.02938481520296    5.80961326047144   -2.53477557848028
H         1.12623366120856    5.68433312697431   -1.93295270624449
H         1.86541113384489    5.31509446153459   -3.49482640065396
C         2.31841126922294    7.29726013535783   -2.75502218310985
H         3.16513602376946    7.39461165184730   -3.43980707149510
H         1.45412927313310    7.76892166879845   -3.22649187409428
C         2.64883619094828    8.03033546055816   -1.45189348445620
H         2.91264189142176    9.06888154483872   -1.66401256990444
H         1.77982420546603    8.03199100762241   -0.78986324453752
C         3.80913392688733    7.32449032636814   -0.74762029889050
H         4.69190830587286    7.37685434698300   -1.40281231001109
C         2.27345264060530    2.23100345635091    0.51032690846723
C         2.79483484551632    1.26368376755862    1.56572965237088
H         3.48761465327555    1.78003004398076    2.22861746058964
H         3.30162386285682    0.41611812454333    1.11120888485124
H         1.96703353628678    0.87955216930261    2.16098702291725
C         1.42655838870990    1.51383323061012   -0.53554573243639
H         1.20141908664295    2.17905958519198   -1.36574994114643
H         0.48641321055833    1.19620007769471   -0.08475711995092
H         1.92724918362876    0.63236540621859   -0.92394213809682
C         1.42730744934466    3.30605976846311    1.19962941168080
H         0.97114021706362    3.96317688250519    0.46023822330554
H         2.06563988669761    3.90207361393739    1.86464400437731
H         0.63267487923014    2.85626187700775    1.79391774520119
C         5.06503996766863    2.14405276300061   -0.90798966993292
C         5.95142477512934    1.65826110910906    0.23330050431141
H         6.20192892050432    2.49616425632416    0.88455368091882
H         6.87297535407784    1.23245471651507   -0.16181547610950
H         5.45560512524001    0.90008862159095    0.83141286166342
C         5.87994744023101    3.09246814713485   -1.79156667104910
H         6.10215017100134    4.01218288448153   -1.24664958107509
H         5.33174610186382    3.34137056367634   -2.69824736310822
H         6.82339948885037    2.63071257290641   -2.08063631413579
C         4.54503290955915    0.98627404025445   -1.74989171912159
H         3.79297198253380    1.33804967789432   -2.45372653351317
H         4.11196003823422    0.20755708812948   -1.12724081176190
H         5.36538535108361    0.54454112234880   -2.31585466194816
C         6.49222714674104    7.28574012162979    1.68611852056042
C         6.84829737804433    8.73966671123045    1.39787419930576
H         6.30581881538334    9.10519277181992    0.52857656128403
H         7.91609205175495    8.82068577242567    1.19489391658293
H         6.61516791832403    9.38301310239356    2.24138070443727
C         7.01599931650115    6.38958256636425    0.55848440395660
H         6.68500981967152    6.75618533051557   -0.41270269725477
H         6.63491357838869    5.36729306829683    0.70428225984100
H         8.10498611227237    6.35535466856247    0.55621597655074
C         7.09951598421073    6.81896989765046    3.00294556224124
H         6.72613566067439    5.82689560024554    3.25146360857723
H         6.86134225537454    7.50412118509274    3.81238849892418
H         8.18452994046420    6.76899364945658    2.91505108543968
C         3.70981317552252    7.65902006314754    3.10327908853414
C         4.00231785256085    6.85273173975847    4.36412949141827
H         3.95545186589888    5.78762646622649    4.13879227737261
H         3.26160383553563    7.07887081522862    5.13026711560209
H         4.98406046472516    7.07611472452081    4.76945217203572
C         3.99826275377981    9.14160144123616    3.30123128105697
H         3.94149523611507    9.66806188512300    2.35099047932248
H         4.98434333935947    9.29460588762953    3.73273219969255
H         3.26408616464315    9.57461355244572    3.98050800265906
C         2.23796833307834    7.45652239411852    2.73427914582996
H         1.97388644766220    8.04790900426662    1.85983182501371
H         1.59137592486700    7.75444407523064    3.55881636074754
H         2.05556087124124    6.40194939605159    2.51957385262168
H         4.74176562549202    4.18932704768856    2.21381592883830

