106
CSD_code = LOQTAO | q = 1 | S = 0 | Stoichiometry = C37H55MnN2O8P3(1+) | MND = 6
Mn        7.56183982058684    3.20043182235087    5.89911068377704
N         8.42905148201075    3.95515982195136    4.43026879918674
C         8.88876176894907    4.55861879196128    3.55487008689826
N         9.39258237143778    5.12588948161016    2.50162430668913
C         8.47407396310236    5.51999987815089    1.43996330409858
H         9.05953557121381    5.60383351962694    0.52087029936230
H         7.74711807575595    4.71431096195401    1.31271469029407
C         7.75555211306889    6.83184042672939    1.73532936279334
H         7.17813418961609    6.74750695193648    2.65380465025822
H         7.07934184588305    7.07024217119542    0.91927926904813
H         8.46470691108181    7.64881144784578    1.84513597426709
C        10.69334366784975    5.78245242233806    2.57421768009989
H        10.59468017291946    6.77570637827992    3.03035086333105
H        11.04011632218651    5.90556789394752    1.54497105141161
C        11.68773619039237    4.94786406780361    3.36521905601705
H        11.32847579007245    4.79492741535240    4.37987971954070
H        12.64451847479723    5.46133698574990    3.40531823495476
H        11.83444024132392    3.97752154067109    2.89500215561354
C         6.69801825698821    2.42214423847464    7.21278695567160
O         6.06846572174230    1.87211905315176    8.00940330522656
C         6.05430608494749    3.97516429329394    5.41825479244250
O         5.06843463847159    4.48578078994535    5.12401333137693
P         9.52132735217907    2.26328576736593    6.41265175315934
O         9.78273965940594    1.49795002869592    7.79809094826440
O        10.67754477569862    3.39737155038728    6.33094176449095
C        10.23991803408817    0.95749598646775    5.35227338032058
C        10.35981555876996    1.25120538598358    3.99987078019414
H        10.00621994868964    2.20363994075938    3.62914784455853
C        10.92804937968661    0.33627493005533    3.13233032382406
H        11.01814225469362    0.57333658621126    2.08230945697452
C        11.37311547260202   -0.88475982492859    3.61167657466026
H        11.81347376964963   -1.60285497777015    2.93665518992746
C        11.25183414588712   -1.18298265433608    4.95869880534219
H        11.59990481863285   -2.13401205256930    5.33410457987096
C        10.68827379900011   -0.26666285521748    5.82994814558123
H        10.59925811140559   -0.50408763869532    6.87884681190787
C         9.30933381370526    1.87863899515389    9.09215206138606
H        10.16532911709192    2.27646751455872    9.64697475505610
H         8.55406754524334    2.66482459517738    9.00080858209464
C         8.73772990084662    0.66396812015176    9.80364247991233
H         7.82797376302394    0.32552873354226    9.31428866728917
H         8.50307159019910    0.92457139628680   10.83173843578416
H         9.46141657923042   -0.14733654719561    9.80469506814090
C        12.03611943840940    3.05235654269800    6.63238199765135
H        12.07511786848860    2.04768355539811    7.06609874632103
H        12.60094855188163    3.04616877072394    5.69428486325009
C        12.62199884328504    4.06075294975406    7.60584305811438
H        12.66902726272904    5.04910352578150    7.15503570254848
H        13.62811530917841    3.75717435489990    7.88159075777523
H        12.00779474461704    4.11147470017564    8.50147908657825
P         8.03110262575861    5.05395410450625    7.04444635994928
O         6.79651538093206    5.82782789519141    7.72551838516775
O         9.08498280019943    4.86211600896040    8.24804677123446
C         8.62698660416236    6.52000019482385    6.14059227836487
C         7.72650636274289    7.37945358472551    5.52388921813132
H         6.66792245521202    7.17695412964789    5.58962721462744
C         8.19180336832877    8.49674949398464    4.85267672566839
H         7.49263395747869    9.17439539426837    4.38586383501949
C         9.55267799081258    8.75136642554533    4.78459919547058
H         9.91199070893428    9.63020957019088    4.26999298902858
C        10.45348897350311    7.87853076838117    5.37531597640707
H        11.51440445606794    8.07533816948126    5.31889395246584
C         9.99128412567850    6.75906328397533    6.04517818990654
H        10.67907362882132    6.06426694608528    6.50378213135394
C         5.81162413911859    5.18054231847991    8.53891304523489
H         6.29419481870594    4.46832952792740    9.21843545047859
H         5.11708658286236    4.63055372574549    7.89390878844105
C         5.07680627965023    6.25501819338380    9.32092309317469
H         5.76796209479229    6.80046788961017    9.95866852916792
H         4.30886887892360    5.79768141347036    9.93764043701030
H         4.60979729928753    6.95745757308276    8.63634649995375
C         9.39079300911430    5.93070283708637    9.15902181784200
H         8.80359496613174    6.81808626617041    8.90134385831520
H        10.45285896615793    6.16582252158071    9.04233867884932
C         9.10253729022724    5.49803043404851   10.58668796647129
H         8.04598383000644    5.27790146731577   10.71507839584532
H         9.37918256019335    6.29741338521350   11.26854194665696
H         9.67478985339393    4.60842771484407   10.83708776354163
P         6.95743254175215    1.43087776741708    4.68132396290503
O         5.36320789081591    1.34324698299552    4.90295691784322
O         7.47109243527376   -0.06169110635723    4.96770730085687
C         7.14051076534143    1.36857491775424    2.86905081900133
C         6.54955415963524    2.41173715373192    2.16598293359557
H         6.05346414187660    3.20156041805794    2.71847775254331
C         6.57610396020285    2.41670785782786    0.78249486337547
H         6.09087752903459    3.20919713278844    0.23068501302793
C         7.21316712311648    1.38967693136966    0.10277881911229
H         7.23451718380942    1.39195852283931   -0.97639694507467
C         7.81326766309456    0.35779207836951    0.80566186122121
H         8.30339179118433   -0.44343512532275    0.27331536213053
C         7.77672586484275    0.34037480135186    2.18981079382298
H         8.23057897663549   -0.46702538450071    2.74255815362043
C         4.55731735913757    0.31474130325552    4.30057429770432
H         4.01522820286998   -0.16939127427702    5.11839314074989
H         5.19823547739853   -0.42501286947842    3.80840979145318
C         3.57814310141953    0.92121308148646    3.31123195742467
H         3.01422545700727    1.71589243629100    3.79213502077778
H         2.88833505058772    0.15568630043041    2.96728070531324
H         4.10485132286415    1.33331174658001    2.45424965445445
C         7.34741589545161   -0.65537756697608    6.26358396089236
H         6.33805325405856   -0.48327470315545    6.65520663416490
H         8.07322535267108   -0.19027920371524    6.93846458417430
C         7.62245809412065   -2.14133265951297    6.12261093474496
H         6.89302183337099   -2.59853621480382    5.45902350067784
H         7.56190495078460   -2.61949431904077    7.09584462219536
H         8.61544353162280   -2.29616797684752    5.70847490008310

