43
CSD_code = LOQWIX | q = 0 | S = 0 | Stoichiometry = C13H17F4N4P4Rh | MND = 7
Rh        4.63433854504200   -0.15563453996474   -2.06905629619188
P         2.80781778450104    0.36862558231615   -3.19615521192934
P         2.35481606333709    1.43127702829040   -0.48189932424281
P         5.33605117941502    1.90563344994045   -2.45165645946987
P         5.94618644913541    0.32797461921825   -4.84662729446686
F         1.75935300295286   -0.62930268888545   -3.92922368917278
F         2.82325722716939    1.35916613463614   -4.48136104268572
F         6.47692981380735    2.75049412905429   -1.66859948049802
F         4.34836796942314    3.19605335729549   -2.47919337141563
N         0.94185431271179    2.25120663989592   -0.10644285852074
N         0.05061514915869    2.40190350206940   -1.08469008470616
N         6.58428784551770    1.04923681154626   -6.22137249788624
N         6.80243690551544    2.36188860325919   -6.17239617630785
C         4.51298837518908   -2.33496591143475   -1.66671602154753
C         5.88190124920950   -2.02921992326832   -1.82842769777495
C         6.19836869543148   -1.10321265394951   -0.81074302088519
C         5.12223803790238   -1.11914010339001    0.16695645513506
C         4.09737216793460   -1.86862324702210   -0.35388129808033
C         1.73702703634127    1.24989684023757   -2.08757769627519
C         0.46673138975756    1.85167073136615   -2.19812265138339
C        -0.35218490223810    1.88654876643362   -3.43690924555892
C         0.59821709696334    2.82466414182918    1.17121572343333
C         5.95898852721324    1.89542470130950   -4.11265582094073
C         6.46750297234246    2.85812723122690   -5.00681254771117
C         6.61535940292679    4.30521739723630   -4.70476150238266
C         6.90352211726524    0.39004400834481   -7.46328293770158
H         3.96675781126532   -3.07442255203544   -2.23759371374237
H         6.53494123729635   -2.37677947503160   -2.61499307221946
H         7.18913855599857   -0.72247681395810   -0.59941053571307
H         5.15972440925162   -0.64250132885929    1.13255963845351
H         3.15728378785092   -2.10815947017224    0.11615151451407
H        -1.27127191677088    2.43449090925211   -3.25096166672910
H        -0.58955046248244    0.87291857163451   -3.75589317240187
H         0.20665134451318    2.36878324041306   -4.23718501021840
H         0.46059202523071    3.90233886472375    1.07186603408314
H         1.40110649099784    2.62164087273137    1.87740672000305
H        -0.33327381483128    2.38961775399898    1.53649606002034
H         7.04758688980739    4.81461343744031   -5.56109426632356
H         7.25580758694928    4.44161183541771   -3.83491592024285
H         5.64182636300927    4.73664848815696   -4.47687285387557
H         7.96000621153049    0.52754574857143   -7.69819467650878
H         6.31091875886532    0.81479759006099   -8.27471083570259
H         6.68321030764971   -0.67142227997792   -7.36606219422764

