51
CSD_code = LOQXEU | q = 1 | S = 0 | Stoichiometry = C20H22ClN2O5Pt(1+) | MND = 6
Pt       -0.07983998024952    3.24402261539517    2.56775940503932
Cl       -1.58827750438896    3.66467326586411    0.92663275316948
O         1.20093632208376    2.84618514068530    4.38414263302377
N        -1.57684112518777    1.85440835619740    3.60900075762691
N        -1.25801118663733    4.52931797724272    3.90159456919269
C         1.48008158141639    3.87000442193054    1.32483486846189
C         1.27163573344291    2.46604767252867    1.12156556865800
O         3.77879753374718    4.28297092206304    1.33176184164354
O         2.65220272449225    4.77071520942917    3.20900981363680
O         2.40503954488299    0.45407148812961    0.86417422338552
O         2.86643190494273    1.64669651118055    2.70485263852063
C         2.69734302079880    4.34755768306943    2.07247087824613
C         5.01102008526015    4.69924531095946    1.92300580083306
C         2.25817171712913    1.49952849923214    1.65531224628319
C         3.35727774602314   -0.53523596106873    1.24821700045296
C        -1.11909870102037    5.84300971237343    3.96505021196244
C        -1.83556920667595    6.59321421820489    4.91462440797698
C        -2.69535864784888    5.96897145250755    5.77932243408275
C        -3.75840174997641    3.84938489934243    6.53551618109847
C        -3.90996628020273    2.50916171725814    6.39797462367438
C        -3.32394024236030    0.40600279562427    5.19991100890967
C        -2.60542053781770   -0.20006655137832    4.20329635100626
C        -1.73069229764651    0.55988586857952    3.40551633908411
C        -2.27886690019835    2.47538592047680    4.57137972623154
C        -3.18413143684517    1.79065909129806    5.40816225617557
C        -2.11341503048872    3.89142324974499    4.72058667921675
C        -2.86741787436215    4.57530579571402    5.69716544285150
C        -0.19209504435473    6.50193441369701    3.00793388890132
C        -0.94803555556752   -0.07265685327509    2.30810490503659
H         1.18440984530595    4.53621344282920    0.51605783666177
H         0.80647475351850    2.14916317197652    0.19035024923329
H         5.70081302063839    4.86586708505552    1.10043016333741
H         5.38446385887341    3.91300863623618    2.58052149760187
H         4.86493073164212    5.61344561586074    2.49952246708437
H         3.18044063637429   -1.39077807188268    0.60257051509798
H         3.22687930359599   -0.80504287221206    2.29761436888783
H         4.36961026035100   -0.15520958213618    1.10346209482627
H        -1.69798665854059    7.66196730086783    4.94857106688886
H        -3.25057124330225    6.53132177056024    6.51468989350268
H        -4.31510229612109    4.39640815087308    7.28056313326148
H        -4.59006612763382    1.96051458861858    7.03106029868288
H        -4.00235125337084   -0.15967868505008    5.82053127641270
H        -2.70284362562037   -1.25752431215345    4.01600648515264
H        -0.41461149740691    6.16743904292746    1.99463206956041
H         0.83799141257185    6.23069361931787    3.24010259891203
H        -0.28479978825247    7.58242097795946    3.05598966029645
H        -0.86726483645894    0.61433991092042    1.46677493171025
H        -1.41600838251629   -0.99526869098330    1.97731368442899
H         0.05574037288607   -0.30861505182450    2.66119253472915
H         1.64958967322143    3.69234223040996    4.55295941515094
H         1.91640322785074    2.26864687881828    4.03430430419936

