59
CSD_code = LOQXAQ | q = 0 | S = 0 | Stoichiometry = C24H26N2O6Pt | MND = 6
Pt        4.53612792264863    1.08346103851958   11.30124664219748
O         1.45206845308484    2.25958420342211   12.87504016794647
C         4.79827540545259    4.01350034448253   10.73970465873133
O         5.62904860485675    4.42934632641416   11.74720368546132
C         6.63091081871750    5.36325896784949   11.36931547529646
C         7.31841248067516    5.86660225287761   12.62524566892664
N         6.20042616552262    1.55877662761860   12.71448888888280
C         6.13438025220413    1.53511808989582   14.03411899761478
C         7.23825164268202    1.88989517846057   14.82563831016625
C         8.41337822964958    2.27408385592751   14.23188035833549
C         7.33311115306040    1.95512236091726   12.10966125932287
C         8.48886074215961    2.32485169664309   12.83045423157237
C         9.64979372673112    2.75038047157804   12.12705812389746
C         9.65020253033877    2.83806129319741   10.77498759914470
C         8.49337854294166    2.50123489396537   10.01805628372266
C         7.33957252078437    2.03365561787323   10.68042053679203
C         8.42027638930045    2.63896358251496    8.62103721710170
C         7.25288782354146    2.32120652861118    7.97940315247818
C         6.15190186710527    1.84143820738549    8.70916607306318
N         6.21645314058605    1.69467355417242   10.02230308379184
C         4.87722730374192    1.50436289692162    8.02910478973560
C         4.84016168932198    1.13989814479922   14.65353926812455
C         2.64443324527065    0.38268710842503   11.91897098271291
C         2.66071199699883    0.75037075850729   10.51830685826035
C         3.75872890583092    3.11875255501177   11.25913021111195
C         5.23864091532662   -0.91006818827794   11.24332574890017
C         2.01392924783941    2.04276681388251   10.06833504062045
O         1.02622690240921    2.02443636852328    9.37562232679042
O         2.59763616414589    3.17215166412304   10.42191920132718
O         4.98734078214849    4.34779993671460    9.58866484444685
C         1.87240204429360    1.13149278891732   12.93315919805159
O         1.64698126253731    0.33478240333276   14.00752865996311
C         0.87206979245131    0.90941034403965   15.04687272650662
H         6.15890049798221    6.18588546142517   10.81974701123717
H         7.34872126160797    4.87969270546394   10.69365042286464
H         8.08807959843403    6.58511944949546   12.35802244906286
H         7.77382361359490    5.03810987562686   13.16204707333207
H         6.59359175218854    6.34567363027983   13.27755250657974
H         7.14843257005152    1.85852023014135   15.90029887879598
H         9.27464586614008    2.54862292643775   14.82357994268042
H        10.52429153865904    3.01901358826423   12.70093561626723
H        10.52467342637118    3.18004011914575   10.24150291819709
H         9.27721080031307    3.00689982260259    8.07602593845185
H         7.15795361712002    2.44099381128465    6.91201802794907
H         4.42647956767467    0.62707124492500    8.49341866300281
H         5.02555439473515    1.33008317515723    6.96717900287288
H         4.19412459585307    2.34808065563609    8.14847899473239
H         4.96172822275177    0.88025660101783   15.70188981869146
H         4.40698903755782    0.29848930393032   14.11222715295422
H         4.14307336423431    1.97556085866911   14.57864737932703
H         2.62706188936705   -0.68640464545897   12.13879371692489
H         2.47735726950514   -0.05685888699055    9.80667645549609
H         3.46416348132257    3.44166120394015   12.26497790845695
H         6.29507327344323   -0.93714687420086   10.96159719540130
H         4.68831112490681   -1.51953103709329   10.52354178257972
H         5.14855799886008   -1.39347136235067   12.21872668301835
H         0.73019415338852    0.12755892386681   15.78850198059224
H        -0.08975116209576    1.25093563445598   14.65902265686825
H         1.39314958167198    1.76348489708233   15.48582955266450

