61
CSD_code = LOQYIA | q = 0 | S = 0 | Stoichiometry = C25H32IrN3 | MND = 6
Ir       -0.46469030561449    2.35980312479952    3.26188123029646
N        -1.96558630746555    0.93113191101159    3.29832899165568
N         0.14170538517832    0.41418366171952    2.88121534638403
N        -1.46159300531416   -1.35608102536747    2.83599345856027
C        -1.10539075433470   -0.04537318118512    2.99965936334950
C        -3.13984193285929    0.77359871090252    4.01027940158740
C        -4.22218405144453    1.61932986209229    3.74517045187663
H        -4.12933479336167    2.34932333732694    2.95485614139573
C        -5.38774945370580    1.52056639237731    4.47637299651753
H        -6.21450894125438    2.18043566559357    4.25473992925442
C        -5.50530387037163    0.58184833870804    5.48919056197835
H        -6.41926501173397    0.50567398393642    6.05887326810524
C        -4.43478632508407   -0.25054145077596    5.77214752446997
H        -4.51108845069689   -0.97454156181357    6.57164555442754
C        -3.26383024777594   -0.15758561531171    5.04828496134308
H        -2.42081066338506   -0.78811105376265    5.29249135456927
C         1.13481986229700   -0.14696542072946    2.09965013510071
C         2.46799945806720   -0.04482917169792    2.51061694768747
H         2.68458971688738    0.43321792165281    3.45440489499448
C         3.48571045191119   -0.54963330994565    1.72811902191027
H         4.50952397199064   -0.46545144629879    2.06394831178929
C         3.20358119958357   -1.16405263341253    0.51825519967731
H         4.00192098627311   -1.56014773422865   -0.09127006871715
C         1.88873072481772   -1.25515337844296    0.09185908754857
H         1.66094308097265   -1.71752906270111   -0.85860141528875
C         0.86392647525534   -0.75128425002009    0.86651307675190
H        -0.15754577856991   -0.79762520748399    0.51660363174966
C        -2.79843953109304   -1.71232910065789    2.40684232332469
H        -3.33876689912691   -0.78687941775134    2.20218223354034
H        -3.33505823608405   -2.23817435532047    3.20642605317068
C        -2.79679820743075   -2.56462662460151    1.13815986301559
H        -2.23625685319210   -2.07160218740006    0.34734247814234
H        -3.82109427301348   -2.70038804808298    0.80038086815667
H        -2.36164192747974   -3.54472519803232    1.31328961346622
C        -0.50922911968068   -2.42092407914943    3.07516394513434
H         0.39923340445318   -1.96865654685823    3.47608880992694
H        -0.24187613488824   -2.92221748378081    2.13617641580732
C        -1.02410507259603   -3.45010390349968    4.08068005917726
H        -1.33256286886270   -2.96302518258041    5.00275888363660
H        -0.22527610396347   -4.15023143264749    4.31175533213693
H        -1.86651281815148   -4.01116896978113    3.68547152643306
C        -1.35797830542945    3.93370511727765    4.34950382344893
H        -2.25760723586143    3.58989756324643    4.86015958932953
C        -1.46339069934419    4.20877488244926    2.97391714716916
H        -2.43242915389579    4.03639511321545    2.51068123128141
C        -0.63205077421709    5.27565601517927    2.28438365199931
H        -1.21553263053462    5.71771707426510    1.47557603128668
H        -0.41195486459037    6.07190520181501    2.99593686990501
C         0.67412378123580    4.69907733112084    1.70200977406995
H         0.51179008709682    4.43115571220307    0.65696862247237
H         1.46494398664852    5.45578401403198    1.72339942248278
C         1.13831179622873    3.45646770153157    2.43393473093062
H         1.77583190164896    2.81207408384237    1.82871318344072
C         1.29917602921013    3.39407561417968    3.82982786834902
H         2.03508648390266    2.68849079476581    4.20860374510679
C         1.06768852085750    4.59020951613948    4.73579022901579
H         1.29993510414502    5.50350071369291    4.18743334947972
H         1.75478797381748    4.53786975252580    5.58145401505209
C        -0.37869923373711    4.63595652913733    5.26787494231580
H        -0.41772171986963    4.14186331002991    6.23974189869960
H        -0.69456782645241    5.67326908255139    5.41864211012450

