95
CSD_code = LOQYUM | q = 1 | S = 0 | Stoichiometry = C46H40N3O3P2Ru(1+) | MND = 6
Ru        2.35660485546705   10.29751296318448    5.61668986545777
P         1.90272921468040   10.58460195960987    7.91141791605573
P         2.98273589919294   10.01428447415597    3.36242254973695
N         1.05928978834230    8.52567874103570    5.52913901796444
N         3.53762175811620    8.82993255954098    6.08117202813377
N         4.06787623034751   11.30920142504309    5.89887114204247
O        -0.28333261009989    8.38800840108349    5.22720220877944
H        -0.62866580505627    9.27213604962560    5.02993363589238
O         4.15977246545722   12.54391648372526    5.76887307664389
O         0.50161992526637   12.55202830259606    4.89247145834713
C         0.28638598108479    9.92770328152017    8.43299922879166
C        -0.79374393708871   10.25859870677081    7.61683137662552
H        -0.61602977138731   10.86000310807112    6.73070586585608
C        -2.07327517167651    9.85705705885607    7.94867101809667
H        -2.90559405815370   10.11825962154092    7.31282230626950
C        -2.28557087789827    9.12300653784123    9.10510790344727
H        -3.28243218061621    8.80322425576576    9.36588418761566
C        -1.21979349468818    8.81137871879162    9.93244598345990
H        -1.38714093483429    8.25538935713626   10.84257502371829
C         0.06376497657316    9.21475704123380    9.60588872739255
H         0.88380540760398    8.97606281051701   10.26800549359921
C         3.14749581764573    9.75358218778322    8.93884476877246
C         4.24128342789490   10.48216728452367    9.40004567995512
H         4.28461850051590   11.54887545489944    9.22500508711275
C         5.26016172380267    9.84223604782692   10.08211171637834
H         6.10107227508794   10.41190888819169   10.44796224881654
C         5.20178391519777    8.47485040950144   10.29780175751289
H         5.99631510928323    7.97784162189510   10.83272912186786
C         4.12281117175486    7.74335387499127    9.82739882669864
H         4.07770272494001    6.67736688017113    9.99386278970564
C         3.10175775277846    8.37571089006544    9.14294896016476
H         2.26299319331752    7.80295945971073    8.76794025378878
C         1.81968816893984   12.24925077433653    8.63686065796250
C         1.49176097313784   12.35975536034509    9.98843482338529
H         1.31651902967938   11.46860502327152   10.57555899490212
C         1.39396672825911   13.60674358345857   10.57257845974495
H         1.14126884563465   13.69085777515223   11.61869669105464
C         1.61812754191807   14.74804852196767    9.81613796662041
H         1.53811102362638   15.72121001252025   10.27580660335772
C         1.94774528683646   14.63913536334431    8.47639306513674
H         2.13046579062916   15.52538868218551    7.88857391347824
C         2.04794589856353   13.39248392052649    7.88090193173208
H         2.33195128831149   13.31365139935263    6.84116774616163
C         4.50090129266785    9.02929660379464    3.21820281275816
C         4.46681420232449    7.64152414500361    3.34167260268215
H         3.51566854312343    7.13142812048554    3.42746071539506
C         5.64489918335117    6.91833887141299    3.34842709308416
H         5.61368722712791    5.84219963363182    3.43230426594611
C         6.86269410760429    7.57223262395826    3.24871694288569
H         7.78015163639598    7.00417126210007    3.25302416084497
C         6.90232754487326    8.95316398483111    3.14322338431539
H         7.85110286886495    9.46246593195589    3.06616559784562
C         5.72772588048938    9.68327207649980    3.13385372998161
H         5.75360738887147   10.76202196383308    3.05621111917014
C         3.33004228552112   11.45604610604004    2.31128356173710
C         3.64155345943270   11.23075976170478    0.97011103451649
H         3.68944393979319   10.21947258002432    0.58987576398238
C         3.88969768603755   12.29999212118036    0.13287054884849
H         4.13156476511354   12.12434193916203   -0.90441495640275
C         3.82655795149661   13.59625981373138    0.62356256907605
H         4.01901403463114   14.42956615279099   -0.03468551449038
C         3.52143623262225   13.82041297018306    1.95477728275158
H         3.47974050110548   14.82746731844991    2.34010835230744
C         3.26993065531842   12.75433435085762    2.80271017375148
H         3.05816514835784   12.93536173581925    3.84691620866192
C         1.72815742571216    9.17194304191939    2.34607363344699
C         0.41978072855319    9.62747665409339    2.49754892806891
H         0.22171381139329   10.42649942700177    3.20516976867461
C        -0.60179958166466    9.09506185142212    1.73498000045621
H        -1.61264456779927    9.45389018536554    1.85635108212771
C        -0.32288783108325    8.10302417779416    0.80801018660039
H        -1.11812710139867    7.68124943725848    0.21329253118077
C         0.97865572333250    7.66260770898011    0.63623278304730
H         1.19913794625757    6.90275960085459   -0.09824854667983
C         2.00621081494564    8.19555798115815    1.39583213018516
H         3.01894345385963    7.85143242213222    1.24155976482745
C         1.02777495923125    6.08773570818624    5.82502852842052
H         1.09233253648804    5.64861998384417    6.81952725922959
H         1.53056549205559    5.41992625882365    5.12735748659109
H        -0.01766776765401    6.17437723024083    5.54360144675672
C         1.68045047164660    7.42817230459529    5.81370339534522
C         3.09748887927754    7.56831855268659    6.13430188371164
C         3.95855520931739    6.52717770165565    6.47067058134668
H         3.60642204372797    5.51077886793589    6.51524681315767
C         5.28695092247833    6.83309279945292    6.74854336180441
H         5.97227501113516    6.04277364486824    7.01137072652544
C         5.72943344328757    8.13831968194900    6.68962087286698
H         6.75413079578187    8.39078587922933    6.90161929861160
C         4.81674755819097    9.14709038615150    6.34607470074345
C         5.09088503950264   10.54659930492696    6.23724726198848
C         6.44661226991518   11.13132654738738    6.48862121812954
H         6.38952992982623   12.20939201118248    6.35333922211090
H         7.17739533129935   10.72319477353649    5.79165494447466
H         6.77657842945181   10.91607783218225    7.50398987071738
C         1.23039823944800   11.71158270191567    5.17160933776990

