66
CSD_code = LORDAY | q = 0 | S = 0 | Stoichiometry = C27H31Br2N5Pd | MND = 4
Pd       -0.37933019724069   18.79188186524399    6.60191500914121
Br        1.04668068186015   17.38999679774886    7.97913865670233
Br       -1.69649682092802   20.12705996494654    4.99335089360467
N        -2.51545188903623   17.23573437526565    7.94767864236258
N        -2.35026463722183   16.70433366944253    5.86527071780570
N        -4.86841578996758   15.59121864865031    3.23165658366294
N         1.15103505227405   20.12383209796696    6.31468224533122
N         2.22203586971320   21.97094924184552    5.83229324201322
C        -1.82410249270605   17.49199906645739    6.82215189630322
C        -3.49404955283766   16.30782878284201    7.68649660856627
H        -4.18480878804974   15.98368876862227    8.43652748450558
C        -3.39081163704607   15.97193466953749    6.38189960129163
H        -3.96323677750295   15.29072063174555    5.78774261728601
C        -2.17740114818152   17.69319751040758    9.25420533919403
C        -2.23785227839179   19.05000928087076    9.57234794090440
C        -1.91924325736641   19.44409033377987   10.86539283751927
H        -1.96509044359465   20.49464512155008   11.11490571992427
C        -1.53654404486511   18.52816615142297   11.83063531362262
C        -1.45639457190774   17.18792231018262   11.47758181587430
H        -1.12754654920931   16.46767860216731   12.21211612113571
C        -1.76400927597028   16.74902521893470   10.20096643823525
C        -2.59108149299432   20.08631615437245    8.54822364724437
H        -1.67601152065585   20.36531613060231    7.99017514185196
H        -2.96996324109964   20.98629468802413    9.02707548528640
H        -3.33768922641484   19.72562723839011    7.83940243643268
C        -1.17572117489933   18.96746784316304   13.21586588760181
H        -1.59956918901459   18.29219962477497   13.95620798843379
H        -1.53134568456337   19.97585027083380   13.41170826038144
H        -0.09244964572123   18.95615037891721   13.33541135466442
C        -1.59452556119499   15.30332738051880    9.84531023765364
H        -1.00663027472900   14.80270394912289   10.60920576787789
H        -1.06894871136888   15.20621018976517    8.89709629268738
H        -2.55307188944954   14.79233789893871    9.76384736016908
C        -1.83238507220917   16.59668182988196    4.52232287172951
H        -1.59463600953714   15.54732715311682    4.31503199589772
H        -0.89804768358088   17.18637368515776    4.48344682164612
C        -2.81319549625247   17.13510351054799    3.46832661355173
H        -3.13678472985014   18.14417529021074    3.74346725874882
H        -2.30627759767453   17.19447401139312    2.50219265300612
C        -3.96486513543395   16.28562029083488    3.32841605983364
C         1.11322205387584   21.43516028039753    6.37088356416202
H         0.31576673826996   22.02565560029895    6.78549070851654
C         2.32442437577656   19.79063440836172    5.71216937698765
H         2.60835585518067   18.76514714913228    5.55101632627611
C         3.00203698328913   20.93515441488463    5.40982693474166
H         3.94491093098708   21.09237467943493    4.92860590234814
C         2.49254272642327   23.35589684780673    5.68827578899247
C         1.84348025501316   24.06513777757673    4.67736615109963
C         2.11808736253626   25.41894717207251    4.55260714370110
H         1.62577399566868   25.98273457155319    3.77386799348000
C         3.01005667460753   26.06068836756685    5.40014492424776
C         3.63770390490412   25.32448508883708    6.39635038921680
H         4.33249908836912   25.81587380390822    7.06180462582226
C         3.39157828875107   23.97025363675166    6.55899044320280
C         0.89268639122324   23.37474340400709    3.74947086132515
H         1.36441632562635   22.50790145171669    3.28752977009666
H         0.56695037739551   24.05057945964866    2.96423750974976
H         0.00930100387645   23.01930671183821    4.27911784739206
C         3.27848410536325   27.52726233406195    5.26145526212981
H         2.66123293764499   28.08475739572521    5.96637085453651
H         3.04282436417860   27.87318501918537    4.25841526318306
H         4.32010393570324   27.75219108656821    5.47891661046825
C         4.06975540984956   23.17907522083367    7.63586006303063
H         4.58916338657056   23.83931596149455    8.32475512794169
H         4.79833998657769   22.49151889487305    7.20610214799129
H         3.34840041431784   22.58644859820534    8.19737854354890

