52
CSD_code = LORFAB | q = 0 | S = 0 | Stoichiometry = C25H19Br2N5Zn | MND = 4
Zn        3.16557407097401    1.49865443997833    3.70459388116595
Br        2.53480592234434    0.51350176925951    5.74042514628921
Br        2.18308888601991    2.39428548849618    1.79025612718944
C         5.77387669245646    4.22628283275504    5.83345094946888
H         6.00303917419150    4.88840189351338    6.64133163425753
C         5.25332260518794    2.17881139431853   -0.65273517449580
H         5.19939628773727    1.49444056010239   -1.48457962163530
C         6.39430192249673    2.14104896301217    2.96280520453007
H         7.48784302968703    2.25687863064129    2.93880378495755
C         5.32980511571654    3.91819461888137    1.50202596425884
H         5.36214172409804    4.60914798197111    2.33150465863216
C         6.14733590465762    3.23511690860277   -3.54130367209867
H         6.76967030026881    2.79897606664959   -2.77395977990179
N         6.12728267386168    0.73784186238703    3.17931786118971
C         4.52082837806651    3.72161728219041    5.47737030431893
H         3.56841110594178    3.89198167405711    5.94017987769851
N         5.91881606990666    2.90707518897037    4.08999743750302
N         4.27210048152881    3.91340871394592   -2.02025074542485
N         4.87987584681302    0.26278650547365    3.22095427965357
C         6.57231028726590    3.27509934439616   -4.85635496311066
H         7.53070032346097    2.84872137698610   -5.11431732311969
C         5.79874452953256    2.61859279480501    1.64711491379739
C         4.91024779202605    3.78586727828114   -3.24089177774171
N         4.62591507314382    2.93443091817642    4.42259180978500
C         3.08111541538001    4.59497790118048   -2.21943406906294
C         4.76959111269187    3.47786348179408   -0.79651010418780
C         4.81491458306232    4.34321042963169    0.29465445475075
H         4.44956306468953    5.35208547412377    0.18943156107373
C         5.79472884479141    3.85723463498656   -5.85370594652913
H         6.15988104568728    3.86634206556488   -6.86986855287189
C         0.84335969742097    5.91413538011267   -3.13112772635317
H        -0.04162526215545    6.43693491930649   -3.46259149803075
C         2.95424479136435    4.91525322893303   -3.58856088410728
C         7.02401354316351   -0.25598645588409    3.32556753981098
H         8.07888272107429   -0.06882783771162    3.31428596250114
C         5.76483015228462    1.75687881624802    0.55638051822466
H         6.12792151379933    0.74339849156839    0.65108112925317
C         4.12713091474338    4.40353121481816   -4.24269754557332
C         6.64422230219928    3.67879804823753    4.92183035062740
H         7.70418488937987    3.78624971827577    4.80949219442686
C         4.57456670457264    4.43168627833169   -5.55634139279142
H         3.97937608414981    4.89948258975319   -6.32583536246643
C         6.31727398566454   -1.42540179217169    3.47147637666947
H         6.70523678378663   -2.41191600049924    3.61232456150922
C         4.97600624986672   -1.04154362614291    3.40333099774106
H         4.09631678354920   -1.64961657176405    3.48476070875766
C         2.07679666477061    4.89372329302617   -1.31145867012213
H         2.13929224194707    4.58400841505062   -0.28060468873362
C         1.82624604973453    5.58613399045863   -4.04323431878583
H         1.72199062523087    5.83507852271553   -5.08861106161524
C         0.96424960348649    5.56077338405356   -1.78887352379725
H         0.16635469625750    5.80354751818090   -1.10389178750236

