71
CSD_code = LORHEG | q = 1 | S = 0 | Stoichiometry = C29H31BCl3N6W(1+) | MND = 7
W         4.87572950727353   22.55351639264283   14.14789786332853
Cl        2.93314070251327   23.02007484834931   13.01262406698927
Cl        4.33694898748468   22.57635516669036   16.35511858453455
N         6.64703053475388   21.53497200747910   14.86404701253600
N         7.02791666616520   20.34567305727629   14.33404844847320
C         7.47294346294742   23.08046689678511   16.65468372686127
H         6.80857895140402   23.83651460704173   16.23399651999089
H         8.46694955635968   23.50494040293783   16.77927691291453
H         7.10139712076584   22.80659841150483   17.64317560938459
C         7.55313028633956   21.86704515298685   15.79979151617055
C         8.52934381468825   20.87611467745558   15.85548292558373
H         9.38307937163330   20.85249328217783   16.49973574185096
C         8.16665576547061   19.92702253026532   14.91382700217030
C         8.86678926153356   18.66807956824420   14.56570026302098
H         8.23074683526893   17.80657498128192   14.75737314789697
H         9.76721577342557   18.57766428683728   15.16567748039548
H         9.14273073600877   18.65679271789857   13.51356616418987
N         4.01987228861946   20.56704557838462   14.21778059530744
N         4.75046080308721   19.48210991915298   13.85872852207144
C         1.69363387443272   20.99546948620755   15.07601287256961
H         2.04258111682492   21.92055829696113   15.53151826764972
H         1.09161457462041   20.44399712917838   15.79521357730497
H         1.05632989227234   21.24805025411603   14.22737416286095
C         2.81570291138915   20.13574131082936   14.62456176634966
C         2.79114498422135   18.74111893637986   14.52250689767707
Cl        1.48385611564558   17.71165098843997   14.92431355026458
C         4.03508172047770   18.35753930279721   14.03117181797054
C         4.51580565500470   16.98724060545389   13.74279870253515
H         5.40695975802490   16.75919614061618   14.32335370640414
H         4.75716457815519   16.87505594185698   12.68791212862268
H         3.73492620512205   16.27791178158393   14.00163115703132
N         5.54312770652897   21.84249333938626   12.22540778630366
N         6.04466441196905   20.59091529636128   12.07071000434500
C         5.03920299414442   23.80289976290421   10.76105790710171
H         5.23057481161499   24.45723209436571   11.61341003440487
H         3.96321134602545   23.78469946350406   10.58088724988940
H         5.52258956885999   24.20924836149258    9.87610992615776
C         5.53527063269042   22.42619120410592   11.01101327147229
C         6.04344337969371   21.52946175865889   10.07734556033338
H         6.16536940016993   21.69564539509177    9.02752126144144
C         6.35556651874438   20.37584354804281   10.78172941128565
C         6.93197909443999   19.11367431816671   10.26217846877278
H         6.25141403468609   18.28192956496613   10.43101365536725
H         7.87337781241378   18.88496780810043   10.75694116990034
H         7.10954393224636   19.20879011863199    9.19525004751528
B         6.16505049678589   19.64660194518381   13.27652563255033
H         6.62025373474271   18.61219986503095   12.96605537096717
C         6.20945502314588   24.13767418617934   13.85640152972009
C         5.04966485961319   24.63301380120980   14.24615669730886
C         4.29816418298091   25.84091552234437   14.43913152652390
C         4.68804286109066   27.04906596416445   13.84712947367803
H         5.57924620775463   27.08007507772389   13.23773714562142
C         3.91952551082836   28.18284460455463   14.01956698653072
H         4.22156226409034   29.10919402763516   13.55526490797400
C         2.76436394085229   28.13583697757417   14.78577903890408
H         2.17157618096133   29.02717124327896   14.92092496300829
C         2.36631364096064   26.94346064220905   15.37248227135408
H         1.46355617601407   26.90799373076383   15.96270811367977
C         3.11877352178551   25.80044599808601   15.19439378322798
H         2.81475052206586   24.86360620353512   15.64530108009085
C         7.57035734434467   24.52439902444133   13.57734371572253
C         8.42219811763828   23.65244506700352   12.88909225985273
H         8.03959270932300   22.70111216419090   12.54223377796435
C         9.73360041462492   24.00553245588643   12.64158488550080
H        10.38049509015367   23.33053903657411   12.10199647492569
C        10.22275922537311   25.22407146454881   13.08805195023375
H        11.24832809459522   25.49736943207263   12.89481013557904
C         9.39411409010004   26.08866177459610   13.78655287026138
H         9.77661899736160   27.03335480514317   14.14138551943102
C         8.07813179400108   25.74804630027997   14.02991820223986
H         7.43660754262629   26.41349199220508   14.58779522195483

