56
CSD_code = LORKOS | q = 0 | S = 0 | Stoichiometry = C18H29MoN3O4S | MND = 6
Mo       -1.84482769700413    5.21240551654450    4.44245619017028
S        -4.18257515884411    1.55094071153098    5.69539244537382
O        -0.47183202116831    6.22998997851529    5.11822509003221
O        -2.85864996423343    6.41244355110370    3.93130125575626
O        -1.15954671951916    4.28149542932988    3.26959194334247
O        -2.93938334288564    6.34247917295848    6.62381858967902
H        -3.31669822866749    6.83953512899527    5.87772096990517
N        -1.21109096179198    3.92920258450321    6.05975180999836
N        -1.99724605213361    2.84673120779681    6.26327707889667
N        -3.40081513309627    4.03334182819161    4.89885393302487
H        -4.34557888659404    4.08134188028477    4.52549887208834
C         0.68934796286534    6.07170274694190    5.71438324098393
C         1.69040824211969    7.04461234716780    5.59383376711384
H         1.48761542500584    7.90750481047112    4.97510797483304
C         2.89760759401495    6.89252734691465    6.24128747286854
H         3.65930724353769    7.65041091946497    6.13634275798748
C         3.14123396792674    5.77019175250717    7.02887798480467
H         4.08962627052428    5.66069943800991    7.53146855267535
C         2.17312351456135    4.80170980310067    7.16005525989940
H         2.35629819355777    3.92547675946356    7.76454214030058
C         0.93437212751809    4.92404141323147    6.51250041530592
C        -0.05646718904404    3.90498568896075    6.64899279321551
H         0.17492670833331    3.03418308493841    7.26291638871337
C        -3.11834572917656    2.94166855088508    5.60516118517069
C        -5.04152787279204    1.68069589379776    4.07885476864258
H        -5.69559771158584    0.80895433498891    4.06242212565702
H        -5.66687581460140    2.57543121943824    4.07838469461295
C        -4.07532954622806    1.65806987686994    2.90301208863457
H        -3.32788423552248    2.45552795150046    2.99785838534691
H        -3.54344582427391    0.70466180282390    2.89823751985173
C        -4.81512781689312    1.84488557416634    1.57929872175058
H        -5.39083251671202    2.77294479710180    1.61496015913428
H        -5.51805105845413    1.02136924873394    1.43021822099975
C        -3.84147289105024    1.91003306590638    0.40535099560027
H        -3.13919283174158    2.72983933225142    0.57233674732866
H        -3.26560855219803    0.98299338457778    0.36186862673226
C        -4.56636794114578    2.11762483583402   -0.92214331471684
H        -5.13149911553309    3.05154208907909   -0.88188754937773
H        -5.28174868780160    1.30519334346338   -1.07483957320341
C        -3.60014572697750    2.16553835461005   -2.10304614882964
H        -2.88647441648945    2.97796859375579   -1.95101539447544
H        -3.03354313850957    1.23223257145975   -2.14390504002093
C        -4.32878588732620    2.37128984405481   -3.42880563136738
H        -4.89124330971516    3.30714441484750   -3.38945529140202
H        -5.04745156205401    1.56098369045168   -3.57536476936693
C        -3.36897357843491    2.41141088670830   -4.61535831370375
H        -2.80567468280830    1.47620383855521   -4.65501943701372
H        -2.65206815745756    3.22265070094006   -4.47091752519954
C        -4.10559891371360    2.61473400247580   -5.93373237328139
H        -3.40534887083008    2.63809780828727   -6.76559239289823
H        -4.65600216941008    3.55309112150158   -5.92194737139907
H        -4.81358510654563    1.80617536440300   -6.10368560100565
C        -2.24600395366653    7.25271159496251    7.46005243319783
H        -2.94587669263079    7.96543894846771    7.90827811367504
H        -1.47477071982592    7.80072673598177    6.90953688618050
H        -1.77700086278459    6.66951312615994    8.25278712770693

