67
CSD_code = LORKIO | q = 0 | S = 0 | Stoichiometry = C30H27CoF3N3O3 | MND = 6
Co        4.79575460429294    9.09679124941939    3.36267989656732
F        10.44022438981133    7.50595291354583    6.81524475113511
F         5.72799358916056    4.68432526219584   -1.69887589570450
F        -0.42166097023742   13.10881511571132    1.62354458435788
N         4.98033520922468    9.47080273585093    5.26714524517927
N         4.61597224833646    7.19436137896816    3.64130226513030
N         5.01563570504400   10.97307111479943    2.99828634098611
O         6.63269209071973    8.74101180526180    3.14117806133863
O         4.67308851238126    8.95247686170060    1.49525820674337
O         2.91436667947164    9.19711848622363    3.39540234014316
C         7.26584737180428    8.64397032043253    5.43973188134701
C         7.48997864054143    8.45034475236097    4.04278869108965
C         8.75490370973874    7.93425753061423    3.64724293416329
H         8.91914226646108    7.79205024024890    2.59051142721724
C         9.72389181935338    7.61995731515305    4.55888518597689
H        10.67801563218957    7.22160881977067    4.25065381704055
C         9.47294570154196    7.81917968700202    5.91866848682647
C         8.28197989150629    8.32399464061802    6.35982537920528
H         8.12139426802250    8.47057335570976    7.41773608095205
C         6.05833279870996    9.20710615993313    5.93193432560677
H         6.08917830880958    9.43983657718898    6.99665707324229
C         3.91819136561244   10.13359818715609    5.95183636193648
H         3.04863140685243   10.24490972336052    5.32385097729239
C         4.16795655392184   11.26141216685347    6.92178879353131
H         5.19148067606799   11.51192227207738    7.15976699210347
H         3.51266386286772   12.11770087984023    6.87970717500078
C         3.62518008863566    9.96069289553295    7.42072384310941
H         2.58734910542893    9.91372440326543    7.71214260697138
H         4.26414074998300    9.32404091188981    8.01323074818379
C         5.02142583448582    6.59553358501113    1.32010800200973
C         4.92010355409320    7.91721918389172    0.79033708659336
C         5.07813472447331    8.07047604688265   -0.61575802182974
H         4.98614515286490    9.06774356466194   -1.01686752837407
C         5.34579887682505    7.00754919430401   -1.43202265812278
H         5.47500953532849    7.13468735361365   -2.49585371604293
C         5.45735333001766    5.72936971925671   -0.87820362473801
C         5.29269967461410    5.51386471733465    0.46067382998358
H         5.37566377986500    4.51408880808394    0.85985736054973
C         4.80192614657240    6.33428455450175    2.69580413645414
H         4.77585455494998    5.27580880401086    2.96495854744907
C         4.34925488759407    6.64799849822971    4.94157804074113
H         5.24846300920350    6.56629351291705    5.54735278216480
C         3.06601724846053    6.96750173498616    5.64604192101803
H         2.36671198959761    7.59091911187908    5.11381433581854
H         3.09416643113519    7.13334068382757    6.71167503746196
C         3.30179347607002    5.58458762239447    5.11918042697923
H         3.49734345875969    4.78525797973421    5.81826428964516
H         2.73445722386515    5.28141038595000    4.25256176378895
C         2.66908058156731   11.42632843619355    2.56304396851108
C         2.17409864525236   10.14537371363741    2.95029286875792
C         0.77086328827212    9.93441025955685    2.87127429806669
H         0.39714043261543    8.96539885813432    3.16431464266728
C        -0.08330937217232   10.90816366564497    2.43178677170665
H        -1.14660809536090   10.73593207631878    2.36927524082686
C         0.43317201527398   12.14858199304809    2.05345570728150
C         1.77341985934972   12.41261772439206    2.11122413312517
H         2.14311348793170   13.38104321031703    1.80927821683078
C         4.05582007648260   11.73602469303558    2.60175117711639
H         4.30961153603489   12.73625475396204    2.24600103007207
C         6.35071237412864   11.47732804810138    2.89559866598776
H         6.89681195501997   10.97085061477999    2.10680108802889
C         6.70124371512310   12.91200868612527    3.16473149979651
H         5.92966752031488   13.58566020615055    3.50577520518758
H         7.43926988579060   13.38099159836660    2.53233530294084
C         7.13869191045824   11.84096712912158    4.11967140531139
H         8.17805562722432   11.55457425829112    4.16215586719898
H         6.63521539166529   11.79834725066737    5.07248232235623

