38
CSD_code = LORKUZ | q = 1 | S = 0 | Stoichiometry = C10H18ClN6S2Zn(1+) | MND = 5
Zn        2.11265961688638    5.28640198136848   10.01572241396055
Cl        1.57494761517154    7.30973095458605   10.61983355915974
S         0.34654532365163    3.52089834875591   10.34061243330524
S         3.35423928263134    5.13109996726291    7.82915773247855
N        -0.61627546665224    2.97070952122485   12.70837715475347
H        -0.57056841219181    2.93503301494281   13.71675010340419
N         1.40153544168700    4.07421977315434   12.73848626937796
H         1.33306459400351    4.08845591693571   13.75535598387943
N         2.43348614994325    4.65098819170472   12.12208004736785
N         4.22944175573647    5.65073951912517   10.60985005877062
N         5.01926839248412    6.15033971934283    9.66017510593149
H         5.80945971721691    6.74643136413089    9.90487305532025
N         5.56092441175991    6.48084106023448    7.44868959860531
H         6.39995694034991    6.94826900774922    7.76123617697433
C        -1.75748670409561    2.35371716670130   12.07369390802068
H        -2.51134664274918    2.14010267366794   12.82485024663929
H        -1.46570421745237    1.42851469369542   11.57370616189537
H        -2.16860214029837    3.02676670466707   11.32084715612044
C         0.37389795027922    3.52973802191501   12.01626598657376
C         3.42233690748137    5.20242869129212   12.73466655536538
C         3.54699006128883    5.26760430568788   14.22820076781939
H         3.31935343706114    4.28729437186840   14.65912641349341
H         2.79891598765472    5.97924111935612   14.59707687149617
C         4.93086511956715    5.71928015416338   14.68549572811819
H         4.90854741524221    5.91868669959170   15.75646872617800
H         5.65974589663088    4.92652203419034   14.50659017059192
C         5.33258281245730    6.97031341568568   13.91910875776798
H         6.25037075857505    7.39151412691072   14.32830243243585
H         4.54729067207732    7.72283920011455   14.00681514973673
C         5.54841512436608    6.62260826894316   12.44890279570257
H         5.67034255932312    7.54602014814263   11.87411275794824
H         6.47070052551896    6.03877365240562   12.34577570824015
C         4.41693506806182    5.82500540231586   11.87138192637522
C         4.71037491588625    5.97402190507807    8.33791919457355
C         5.35840223275215    6.35917013606665    6.02385905843006
H         6.08689150748845    6.97474487679429    5.50593286872251
H         4.35047615680009    6.68517060107729    5.76480523511124
H         5.46601923340239    5.31986328915472    5.70889572935675

