45
CSD_code = LORMUC | q = 0 | S = 0 | Stoichiometry = C22H16F3NO2Pt | MND = 4
Pt       -0.13725964374415    7.17818459328571    1.51807010836508
C        -2.95407189358286    8.56422713077123   -1.26556978189085
C        -2.35310296839756    7.96441632430423   -0.17537374881993
H        -2.93930232560711    7.43729877955013    0.56537267210509
C        -0.25643900885020    8.66449360384268   -0.90273824334933
C        -0.82878589330220    9.28062055658940   -2.01492861252833
H        -0.19877560578239    9.79140741529137   -2.72416064341852
C        -2.19530388075584    9.23801144745234   -2.21218742018612
H        -2.66740300985350    9.70383947646274   -3.06200758832002
C         1.15918903409222    8.63278902585727   -0.57884043741634
C         1.46233078215790    7.92721303039945    0.60835878213347
C         2.78914615010945    7.84149266407798    0.99742910628110
H         3.04292425331312    7.28650713754246    1.88885900878861
C         3.80656207143478    8.43301387401235    0.24805400387310
C         3.48387558436439    9.12545868781395   -0.91987472203334
H         4.26269217624253    9.59875610720395   -1.49773140152333
C         2.17217101237960    9.22471916632603   -1.33207332581039
H         1.94247416393850    9.76620358613653   -2.23756398000743
C         5.20026659161978    8.33221690168244    0.70566599763703
C         5.51728101661507    8.50338714599406    2.05333504688263
H         4.72133834469252    8.72869272337959    2.74569753799194
C         6.81717703167979    8.41377217293202    2.51237927731814
H         7.05568172382678    8.55462604912579    3.55425288142076
C         7.82657806682292    8.13905528090339    1.60711416637896
C         7.56563479485379    7.95295774033540    0.26263410492225
H         8.35624621514072    7.73046320058049   -0.43521108542677
C         6.25496322767239    8.05627381640220   -0.16418204907387
C        -3.39041569138064    5.32578821450378    3.90424038751639
H        -4.15193546998375    5.77038424283060    3.26848394314171
H        -3.56084224717918    5.62172201431720    4.93652292748996
H        -3.46626019695979    4.24166721924892    3.84404721907384
C        -2.01421641358135    5.76557085052909    3.45192914893881
C        -0.93249270737640    5.37883381782822    4.25154709279589
H        -1.15245801841143    4.79733113666336    5.13361269594107
C         0.40332312001490    5.68154734627306    4.00373832913605
C         1.41840219196687    5.16564253576601    5.00228967249952
H         2.42149071504946    5.41156756559287    4.66462478184295
H         1.32645458683863    4.08755513278348    5.10962712316157
H         1.24589300670914    5.62102129434201    5.97522471525961
F        -4.28935971416128    8.48904147349937   -1.40242349943299
F         9.09810944822112    8.04838713135197    2.04147930978721
N        -1.03439515257075    8.01268802358088    0.00330857824869
O        -1.94591161822928    6.43620861097617    2.39142462187695
O         0.88278781345510    6.35009704882182    3.03673859757319
F         6.01303833649881    7.85144870283468   -1.47429529914451

