107
CSD_code = LORPIT | q = 0 | S = 0 | Stoichiometry = C39H60BrN4NiPSi | MND = 4
Br        8.72927294994916    7.44264358696222   18.64257466444491
Ni        9.38121418124755    8.29163090881257   16.55046356243792
P         7.26134392987721    8.87226210519264   16.29998212581956
Si       10.02319198825278    7.97394830177134   14.45197225085288
N        10.32028175920963    9.23899276205858   13.26892475516455
C        11.28899576156069    8.10691594335102   16.90677890311981
N        12.14216490240093    7.53375347379089   16.04212883691297
N         9.15205278339762    6.80847533452599   13.45828425096516
N        12.02661491709882    8.42769172204698   17.99066564399417
C        13.40729524524044    7.47512799553955   16.57018078953708
C        11.75729323602457    7.14334641468384   14.72279244251653
H        11.69628511543603    6.05630622739064   14.64546117785569
H        12.50699182010286    7.49359597704440   14.01739619188275
C         9.23679870582845    4.53432540980093   14.41666447502456
C         9.31969274571719    9.57183009487713   12.36652436078290
C        13.33395730042503    8.04043487393741   17.80794909142623
C         9.40971455223265    5.41992742638092   13.34456437300818
C         8.85097743747627    4.95123619110074   15.81591838781860
H         8.72476543205123    6.04510786911804   15.85898640111497
C         9.84540505487413    4.93239195746367   12.09775265889177
C        12.71404899935713    8.91014684191238   11.70063207540231
H        11.93676697124120    8.15748688343277   11.85500911618855
C        11.39734010992257   10.13975897173351   13.48678744542969
C         9.42971693220096    3.17424375837239   14.19483376300123
H         9.28924436192522    2.48242572970040   15.01089542298079
C         9.99899205674642    3.56603040702628   11.91840154221915
H        10.30421621483159    3.18577162559989   10.95535084058595
C         8.17365007148823    7.35390035196339   12.64406683748599
C         7.52604027387634    4.30699788084977   16.23076868023973
H         6.74272097388923    4.52602593693004   15.50760163181486
H         7.22603470968187    4.68277203544395   17.20572859218010
H         7.62517375419738    3.22669174924577   16.30279304490541
C        10.22132175028243    5.84869880318346   10.95338326264098
H        10.14460527942549    6.88622612145184   11.28383653011102
C         6.58912535003557    9.84067446119249   14.88505921527939
H         6.86504063347632    9.37317751914843   13.94249044034178
H         6.99105751528794   10.85123268289475   14.90006435966813
H         5.50374587191091    9.89569414245385   14.95953720393308
C         8.24072052377617    8.61885656653976   12.19406965865175
H         7.42764596590463    8.97827903981615   11.57897190835165
C        13.60521891966198   11.72083500135174   14.08243430057149
H        14.46876653196690   12.32251862498478   14.32657056488040
C         9.77840181373885    2.68237835751254   12.95555606545622
H         9.89554314601336    1.61961376076352   12.80280009033324
C        14.55607057652452    6.89654002925710   15.82768868189432
H        14.87325599105472    7.56920407916930   15.02913530686731
H        14.27996855390060    5.94213959295470   15.38125093327576
H        15.39681757916908    6.74019693910708   16.49763406879416
C        11.27817179884367   11.18584811171434   14.40886180699874
C        12.60631335491591    9.93429604835214   12.80719770121585
C         6.61314681660902    9.91890516476307   17.66707108999609
H         5.56947690016582   10.15832208773956   17.46603293168144
H         7.18359537031140   10.84325178025752   17.73559212294884
H         6.69137536743805    9.38777364357557   18.61307567557096
C         6.97084705079200    6.49732441912932   12.36530458029836
H         6.33927539795458    6.95152239538838   11.60623662246892
H         6.38599003849044    6.38936554961040   13.28089161067619
H         7.25781501643964    5.49776521241768   12.04626746489770
C         9.33662772400205   10.71281086073112   11.65893098812377
H        10.12155663044949   11.43977562229936   11.76688876503492
H         8.56883866230241   10.92617720855419   10.93820698684197
C        14.37806061055350    8.25797311891632   18.84117146269664
H        15.30685588810186    7.78514320118075   18.53548856102110
H        14.06686233530171    7.83520455226635   19.79567145191148
H        14.56649803708786    9.32239799528279   18.98561673693609
C        13.69509590731062   10.73720084185959   13.11700846928492
H        14.63028736981995   10.59653116665027   12.59798583073438
C         9.95168723188358   11.56090558524573   15.02564174015868
H         9.18899096080903   10.88297569489235   14.63669631497774
C         6.03754807182720    7.51064622798596   16.34381570843325
H         5.02996842498546    7.92487436933695   16.34696659677419
H         6.18767930604355    6.91460801962349   17.24130707080908
H         6.16632258058917    6.87616719262042   15.46997078561142
C         9.94585006476048    4.56794049049929   16.81552823859048
H        10.10661339514996    3.49259723598260   16.83016217793806
H         9.65755564932512    4.88389993415220   17.81441362880039
H        10.88737127035717    5.05116661899114   16.56379897885835
C         9.56774745047068   12.98281838171855   14.60265141710630
H        10.26249569222288   13.71480062578086   15.00741586992275
H         8.56914464707886   13.22516886306743   14.96266399851242
H         9.56900685133207   13.06829372885846   13.51881279559067
C        11.57605938640253    9.10290728517035   19.17746649423291
H        12.24875413756910    9.92820691530847   19.41279400443200
H        11.53907271966814    8.41001944613731   20.01995475447716
H        10.57297789221416    9.49232813208817   19.01695605845552
C        12.44721000246298    9.59361971975025   10.35525285103603
H        11.44046701326793   10.00328658948458   10.33191988287818
H        12.54820492765048    8.87714102369815    9.54258889724929
H        13.15686394126134   10.40291615492179   10.19302796327615
C        12.39735537324440   11.95215765368976   14.70691529243619
H        12.32007585834492   12.75090863424174   15.42995671572701
C        11.67670047248523    5.59046178989610   10.54998916180595
H        12.32524684333431    5.63185882878923   11.42234256136233
H        12.00059003621261    6.34153558429769    9.83294464206371
H        11.78961108743032    4.61284510136877   10.08786058990868
C         9.96944746343681   11.44543106165840   16.55052286170255
H         9.92876948081810   10.38401340564958   16.84549832946559
H         9.10728374676619   11.95470462248425   16.97707739790200
H        10.86967625705061   11.88238045623205   16.97615576398112
C         9.30736863419264    5.67212395202959    9.73907403811024
H         9.31261887402295    4.64033691091405    9.39446860953266
H         9.65034844083474    6.30763584296681    8.92517493618671
H         8.28517674248999    5.95094461959204    9.97785442898474
C        14.07308592235994    8.20835154021272   11.66181033712419
H        14.85389138375835    8.87981716482656   11.31262025276141
H        14.03480220984535    7.36454180590820   10.97702043806252
H        14.35520802937021    7.83671133944758   12.64538962833608

