96
CSD_code = LORPEP | q = 0 | S = 0 | Stoichiometry = C36H52Br2N4NiSi | MND = 4
Ni       11.96386837441922   15.10985620744195    1.46258697878021
Si       11.20219489485719   13.51653388669673    2.67614515573303
Br       11.46278203417874   16.52004703881654    3.24772207686681
Br       13.55168822239744   16.52374033481177    0.50616886419853
N        11.86824242051043   13.20030468417787    4.32488311794849
N         9.45280834919189   13.35534933019022    3.10664155656157
N        11.92093114270387   12.46714738463453    0.32193238017893
N        12.02616786071771   13.85676500989735   -1.31320447211029
C        11.96411127195009   14.01887058146162    6.64025061821924
H        11.36540291762020   13.71800951979937    7.49663076925736
H        12.11470295144094   15.09752757478683    6.70808859936426
H        12.93192753923264   13.52744514636013    6.67516544610710
C        11.24136276161132   13.75630162687791    5.35986748414619
C         9.90660934983570   14.12102376441329    5.29655076851963
H         9.49077768966880   14.59496947903556    6.17080176571815
C         9.02763990152653   13.85018418120951    4.25734907683741
C         7.57501657579375   14.11992562505865    4.48506454643292
H         7.42643847701740   15.19835769876911    4.53742933234356
H         7.25442916602545   13.69855455254949    5.43613830538445
H         6.96214716409952   13.71997328329562    3.68112710417588
C         8.59179338925033   13.06881615108191    2.01077346192707
C         8.17741096117918   14.09882253960564    1.15648915998934
C         7.50287815518927   13.75195431180891   -0.00798709098581
H         7.19469387415041   14.52876534734630   -0.69025768773073
C         7.21066373266214   12.43668442394390   -0.30293254767957
H         6.69051071270351   12.18762427221110   -1.21591575886654
C         7.55519891111944   11.44039627763185    0.58987881878350
H         7.27646981553712   10.42151862067150    0.37425436315509
C         8.25479219832185   11.73461023024051    1.75181415780430
C         8.56313494401393   10.64160281233818    2.75223376438483
H         9.43010401257047   10.94650486314327    3.34689903132191
C         8.87339808646973    9.29540713541856    2.09473958086887
H         7.97558909604940    8.84739751490345    1.67664270167018
H         9.27163601032484    8.60460113971977    2.83383629917765
H         9.60595603293996    9.40141065259829    1.29711198691564
C         7.37372767128721   10.47453333332571    3.70486380992231
H         7.19946081607491   11.38223568754741    4.27538797208712
H         7.56564235189363    9.66246084933580    4.40300662528463
H         6.47089463652676   10.24148400330446    3.14395679858161
C         8.35495556725266   15.56402352457089    1.48224177880869
H         8.84380057604413   15.66825915273532    2.45330048941561
C         6.98241326103535   16.24211911064155    1.57708637983647
H         7.10140011181986   17.24663877915384    1.97524634572465
H         6.31250283048740   15.68750046530173    2.23105535123847
H         6.51539634671313   16.31701884019236    0.59810128113386
C         9.21626870100256   16.29194836512756    0.44991767596105
H        10.25894867031666   15.92840697524990    0.49209822333945
H         9.22979528816297   17.35639765847046    0.67223622795996
H         8.84686173949196   16.14576989760631   -0.56252829886816
C        13.06807831550482   12.45881793843581    4.53929519757322
C        12.94080658084445   11.21426752223271    5.17714919300311
C        14.08336115726732   10.47210642157889    5.43890228070372
H        13.99811442007858    9.51707508161160    5.93362927692208
C        15.33016217399404   10.94379291242173    5.08271975060525
H        16.21454049324557   10.36694358555292    5.30830012862148
C        15.43942221247430   12.15331500603247    4.42928883445541
H        16.41647695076798   12.51043696532576    4.15023799329223
C        14.32336689745652   12.92893110075918    4.12903381885708
C        14.53957365724188   14.24647395867407    3.42639949267766
H        13.64129557629989   14.49357284630033    2.83547063130659
C        14.74615477256066   15.36881084295088    4.44551906932905
H        13.86483072402815   15.49931411680076    5.06705338521702
H        14.92451637289770   16.30284541302428    3.91927570324769
H        15.60170250603167   15.15190321233264    5.08324093537652
C        15.70558915055691   14.21189199063062    2.43797934571445
H        15.63822674530133   15.07660015301203    1.78216001831900
H        15.66851923258800   13.31392508601884    1.82278058238734
H        16.66670885288163   14.25690051118703    2.94468608133516
C        11.60149605592430   10.62936272359688    5.56937683981605
H        10.80175651906546   11.31953272352228    5.28491580824690
C        11.50939999898227   10.40619207866231    7.08077284637774
H        12.23617240687214    9.66764488560775    7.40894052160725
H        10.51643853095068   10.04716602388553    7.34372839620220
H        11.69648630370066   11.32987467265249    7.62151978044140
C        11.37135916324531    9.30900204591354    4.82874279171037
H        11.47660235617263    9.44948466596772    3.75523588754439
H        10.37218962047075    8.93351230263768    5.04005921100134
H        12.08888908150600    8.55560295928667    5.14333236758510
C        11.73301674153556   11.96217083265145    1.65133943792586
H        12.66792267978765   11.54266799869933    2.03253489651671
H        10.98807205233058   11.16981626206602    1.62508626840308
C        11.99746915052575   11.71247814643323   -0.82386885618327
C        12.06362461396195   12.59413838024488   -1.86008510770121
C        11.95206275551200   13.78363205418553    0.02896319136943
C        12.03208377453778   15.04909066378920   -2.11596592424569
H        11.85797177895094   15.91635419347645   -1.48324468430842
H        11.25058101339021   14.99018326036273   -2.87454477492888
H        13.00048888902259   15.17640669380954   -2.60177890523070
C        12.15546721120176   12.36733738433322   -3.32445499450028
H        12.25658059345634   11.30586232579118   -3.53183857005615
H        13.01655516982201   12.88959237272712   -3.74014080933065
H        11.26145550084099   12.73342958052113   -3.83040713333009
C        11.99094875022432   10.22669184712235   -0.80883609269259
H        12.32055399264996    9.84145872029996   -1.76975292257310
H        10.98654833847964    9.84528867716392   -0.61498649145763
H        12.65691259948920    9.84870101421367   -0.03395507297162

