26
CSD_code = LORVIZ | q = 0 | S = 0 | Stoichiometry = C12H5NO5S2W | MND = 6
W         3.06829766385833    6.86577728889327    2.00889919684294
S         0.33469865589581    8.06709182991387    4.18189427312898
S         0.65323502093447    5.78247154870236    2.19117615279030
O         5.92769594801936    8.08844976958775    1.76613406734969
O         2.79810217779707    6.63020593524395   -1.10917503661372
O         1.91478519210832    9.76871609338454    1.72892186801394
O         3.39117525582889    6.96697407670318    5.12693555828046
O         4.23299642570764    3.95381044871420    2.12898342563781
N        -1.47606873726635    6.34262075764995    3.64863221808750
H        -1.93626014771886    5.54819173255569    3.22773510470143
C        -1.21277992267441    8.18162584467009    5.00318873662637
C         4.87877715229223    7.63917612940937    1.85299394057452
C         3.23455820940219    6.95183677549039    3.99616070980099
C         2.89048412002238    6.71608897277454    0.02228839927218
C        -0.20663559046981    6.65694384162439    3.30320715462456
C         3.80441837941319    5.00781837218098    2.09062506565167
C        -2.06895102244080    7.15648996359560    4.58380175705875
C        -3.75056012323561    7.98426540793240    6.04718459423394
H        -4.74239871565834    7.91952826001565    6.46630831265093
C        -3.35000782096389    7.05233680498147    5.10764106627587
H        -4.00866651984565    6.26173106770912    4.78458378530306
C         2.30525653904199    8.70530175896794    1.87050002142191
C        -1.61821221769663    9.11223903712659    5.94272083488977
H        -0.95069443078877    9.89758294781858    6.25739339222581
C        -2.89715382763823    9.00163890647134    6.45985837787929
H        -3.23509166392186    9.71578642788276    7.19390702329044

