30
CSD_code = LORWEU | q = 0 | S = 0 | Stoichiometry = C13H8ClN4O3Re | MND = 6
Re       11.77952775952027    1.37932819101946    7.24459520641544
N        12.38430902170369    2.32501384912214    9.11083285473096
N        11.87141878483347    4.27209866799940    7.92021873401372
N        11.42616276679624    3.39121131426512    7.03456142079229
N        10.47583546782711    2.81230595580295    5.04801222813115
Cl       13.58552147748416    1.81713423286901    5.93137510111389
C        10.09196742889415    0.84030956292488    8.05926042408132
C        10.55427158641612    1.45460296233987    5.48511342649401
C        12.39420126425480   -0.47489781346401    7.38994628425855
O         9.08713866937935    0.50265342066505    8.49762813491880
O         9.96816049734783    0.60181139416722    4.87913619844924
O        12.79950220971249   -1.53741601137223    7.47838437374189
C        12.32838314266067    3.69450733037474    9.02546714689653
C        12.72925804306074    4.49902176329793   10.11962081862743
H        12.66234366883087    5.56776211071419   10.00225681710473
C        13.15566832036812    3.90464350173741   11.27054954778589
H        13.47221434772701    4.49830481183785   12.11438049423723
C        13.16766796302034    2.50283436133170   11.35202064548995
H        13.50551629349620    2.00393567435944   12.24487353416147
C        12.76803545883746    1.76827826615382   10.26384099445377
H        12.77556714985788    0.68615550394656   10.28599791172001
C        10.97780198983668    3.81073733839993    5.86290118856868
C        11.00233462539779    5.14152714456322    5.38367393295044
H        11.39617126192928    5.89154396839627    6.05050934933732
C        10.56601046290953    5.41920437652494    4.12453388041331
H        10.59116734310791    6.42697967432633    3.74175387652371
C        10.08227598434846    4.36945487664263    3.30415985536996
H         9.73478561495952    4.57649785273876    2.30578898449053
C        10.05518956001242    3.10178328446955    3.78316123292488
H         9.70149183547432    2.25037243384417    3.22044540180419

