53
CSD_code = LORYAS | q = 0 | S = 0 | Stoichiometry = C15H29N2O3ReS3 | MND = 5
Re        2.71989520016821    1.54623437957360    1.73744388548258
S         1.32687784161104    3.02244857806117    0.67105494117215
S         3.34451625327667    2.39295840380024    3.78206082010470
S         4.50644947363871    2.55737623361608    0.66224662413574
O         2.91864719143991   -0.05068902984199    1.27602673217572
O         9.57225319485678   -1.04684492737356    5.89453648159301
O         7.75880707010204   -2.23093046059057    5.17665299925019
N         0.72310023017883    0.99459402583094    2.95191337906469
N         7.15939909871988    0.36045022276981    2.79865323978010
C        -0.31899283764248    2.51242772755204    1.29882660751246
H        -0.96643396609104    3.38350767203685    1.19555884264982
H        -0.69666562843526    1.71855644658937    0.65543743547511
C        -0.23415369700307    2.08939764639552    2.75817631491748
H         0.10816945274471    2.95313345342489    3.33588842186899
H        -1.23008568328304    1.81096392251880    3.12732345966813
C         1.09647844432040    0.82900551029163    4.36202327656935
H         1.67440220893105   -0.09733113883904    4.43028310295965
H         0.20202938750512    0.73896719312332    4.99473142258585
C         1.95417725669381    1.96596244985985    4.89726242863058
H         2.39592333365245    1.67528602943351    5.85064588564002
H         1.38251548200705    2.88344259780710    5.05087066751807
C         0.23913186891268   -0.28092478814268    2.38851715402659
H         1.05453052297092   -1.00208840255360    2.49100838439679
H         0.08092720332666   -0.13519953010470    1.31824383109178
C        -1.02821212569114   -0.86049471669455    3.01357991548919
H        -1.24114246774595   -1.80900791083565    2.52802969777727
H        -1.89057015414399   -0.21434982221136    2.86798782500037
H        -0.90376975141302   -1.04985454917791    4.07670831426403
C         5.95844252413770    2.18814459534455    1.69277423412696
H         6.79753406670259    2.70601268312850    1.23169443451384
H         5.78377622387113    2.60513849011317    2.68329924984082
C         6.20653593509288    0.68322730987999    1.75379777771751
H         5.23567763337361    0.16730779437232    1.90425054342748
H         6.60317258547362    0.35875592414489    0.79019856681456
C         7.93034191891911   -0.83630417356418    2.52232381407781
H         8.35531203289356   -0.75572959197526    1.51934117355311
H         7.30117660770296   -1.74258518681331    2.56691555300208
C         9.06111110742280   -0.96818093818773    3.53731275457366
H         9.64842429868106   -1.86433497011363    3.33185347098118
H         9.71596836130300   -0.09935340356079    3.48591978998107
C         8.49367734842290   -1.04028774699145    4.96193057865911
C         7.58175664650884    0.16713221332864    5.19439911290225
H         8.20425052322799    1.06084122396674    5.18412518805473
H         7.10646809205343    0.07328368781842    6.17129736462081
C         6.52521088914929    0.24827638132865    4.09928477944455
H         5.88542511213891   -0.65037937879962    4.14984882533316
H         5.89790056009678    1.12530224694671    4.26461764299322
C         9.52042148679375   -2.23640109015837    6.64934491769906
H         9.08025004542927   -2.03600913531518    7.63558815237630
H        10.53355185859792   -2.62327676092233    6.77093441656142
C         8.61342776062833   -3.14633171837820    5.81603980869050
H         9.19772048221538   -3.71682110872140    5.08045791331694
H         8.00406149555796   -3.82682456315091    6.41025784588998

