91
CSD_code = LORZOI | q = 0 | S = 0 | Stoichiometry = C40H40Cl2N8Ni | MND = 6
Ni        0.00250999364999    0.00626574799209    0.00273128492969
Cl       -2.22239275050021   -0.01062547719601    0.17205530988316
N         0.14432138636967    0.68636235771114    1.76793599211030
N        -0.51706227806856    1.34092735383722    3.75546566038489
N        -0.05054669423875    2.10325692586546   -0.94926790942754
N        -0.83092286325018    3.27202803843338   -2.64532589753783
C        -0.85129356430005    1.18917395483364    2.46355012784124
H        -1.81389074206178    1.44810509383209    2.06737676583179
C         1.17306717800120    0.51800077909395    2.64727322396093
H         2.13138731332939    0.15426318495662    2.33574592698901
C         0.77194943197151    0.91186572474917    3.88545586499267
H         1.28499452639367    0.91419160096457    4.82428700131760
C        -1.41569843492229    1.65598077368897    4.83272315323829
H        -2.27650428990154    2.18816579683791    4.41483111228336
H        -0.91023331352152    2.31138502565012    5.54838641770547
C        -1.87624517493868    0.38827573221891    5.51879206885809
C        -1.86352869575345    0.28601592247529    6.90206621193219
H        -1.52986395888607    1.12325180551869    7.49932693391849
C        -2.27818441444596   -0.88084723903861    7.52145767869362
H        -2.26631109426157   -0.95049818535980    8.59957671076291
C        -2.70293954445558   -1.95626745207351    6.76073434258923
H        -3.02328198802808   -2.86738705323078    7.24461965510153
C        -2.71806526506994   -1.85798705271732    5.37930589407016
H        -3.05687636840422   -2.68845507290802    4.77818346662899
C        -2.30726078877760   -0.69240020506525    4.75878505897812
H        -2.32132936963808   -0.62666770655475    3.68067929279369
C        -1.12832630473563    2.49859625826181   -1.58046559791535
H        -2.13070503817933    2.25204678460953   -1.28917926321395
C         0.99836444014765    2.64831214212474   -1.62832428852875
H         2.00831680985476    2.48046060306727   -1.31013436008446
C         0.53191941946890    3.36681132651884   -2.68754371060411
H         1.03752247045290    3.93631149008739   -3.44026175860189
C        -1.75892731965050    3.75880917737881   -3.63471597977541
H        -1.33436544185403    4.65409189296196   -4.09910683861524
H        -2.69402496922079    4.02618239815702   -3.13459750765209
C        -2.01174108293878    2.69556320824248   -4.67829015353791
C        -1.06929433690701    2.45232859596200   -5.66892799501523
H        -0.16192649151271    3.03746271612483   -5.70705991879278
C        -1.28424770249841    1.46495502799280   -6.61293471891054
H        -0.54431504861439    1.28856532060312   -7.37931494133229
C        -2.44281107436279    0.70736655844457   -6.57153882703211
H        -2.61481307800428   -0.05956965067850   -7.31310954827974
C        -3.37908288453761    0.93322931127769   -5.57662765510922
H        -4.27930631979065    0.33852331600990   -5.53392595533211
C        -3.16172884970674    1.92008916725976   -4.63150234658066
H        -3.89353456120399    2.09087410666992   -3.85563065913374
Cl        2.22593987934884    0.02390309563750   -0.16285951864265
N        -0.13972560847004   -0.67518545866045   -1.76223111522444
N         0.51304452526868   -1.33962319188748   -3.74939360561508
N         0.05197890918301   -2.09121953587299    0.95559103831778
N         0.82751368288275   -3.25687405249372    2.65605958763531
C         0.85573307323435   -1.17344929121617   -2.46142088484027
H         1.82405353345793   -1.41883380196316   -2.07047305933696
C        -1.17658357059769   -0.52392361859442   -2.63517093506409
H        -2.13578174806168   -0.16600508530409   -2.31959429498492
C        -0.78102783658679   -0.92449193976515   -3.87297133905474
H        -1.30124631848872   -0.94066132169950   -4.80767083675820
C         1.40480739196790   -1.65883656783057   -4.83077527973970
H         2.26964122378283   -2.18718267721648   -4.41609925244017
H         0.89546948915166   -2.31991385113516   -5.53846883919232
C         1.85998691100033   -0.39652286923365   -5.53044533160252
C         1.86338554916791   -0.31747598074491   -6.91540295388365
H         1.54251781286887   -1.16686562373845   -7.50236921549365
C         2.27814003545040    0.84133820954548   -7.54946260953934
H         2.27939633916713    0.89237952761633   -8.62867441831126
C         2.68681269380696    1.93225002801006   -6.80200871441414
H         3.00818680386213    2.83681783824877   -7.29732747335532
C         2.68457919500784    1.85761358038534   -5.41912802110634
H         3.01063831444971    2.70036275813666   -4.82811365519269
C         2.27384599905745    0.69992061591160   -4.78382459069599
H         2.27554222089434    0.65282844770713   -3.70465273472879
C         1.12810599367784   -2.48767291277113    1.58897616111040
H         2.13147541588526   -2.24467455186290    1.29813298124317
C        -0.99892671867736   -2.63264918259456    1.63440603455286
H        -2.00809883246021   -2.46377640407125    1.31434153445440
C        -0.53554715879497   -3.34875627299915    2.69656037102811
H        -1.04355315164103   -3.91458743895282    3.45040612750880
C         1.75352724005288   -3.74783095755540    3.64509126333025
H         1.32252817666814   -4.63871232111284    4.11216190660000
H         2.68546859140182   -4.02428155612054    3.14395828873453
C         2.01872237316345   -2.68643919338584    4.68757937268410
C         1.07284006801634   -2.42104435704758    5.66932749825633
H         0.15132315508512   -2.98417820906770    5.69864697201420
C         1.30248714864824   -1.43935159271537    6.61580823620383
H         0.56003940020475   -1.24635250332806    7.37574288124586
C         2.47872687773269   -0.70880325787478    6.58538211877048
H         2.66210511292424    0.05349165229041    7.32898325007620
C         3.41819093941279   -0.95590956147473    5.59866752463351
H         4.33244434423370   -0.38246235625096    5.56460768538080
C         3.18670797073052   -1.93777974728132    4.65163788447583
H         3.92181368014343   -2.12596863494065    3.88291063620604

