29
CSD_code = LORZEY | q = -1 | S = 0 | Stoichiometry = C8H10CoN2O8(1-) | MND = 6
Co       -0.00000219564301    5.29060163454820   -0.00000237702564
O        -1.15793136612240    5.72709951803263    1.41538768697239
O        -1.64185579360514    5.21176950719666    3.51972669179745
O         1.16806184000991    6.63046002637943    0.60581392850197
O         2.87607863482955    7.00674665559905    1.97115352090508
N         0.88530281318118    4.10471436256103    1.23748676919117
H         1.09312045306305    3.22886663324819    0.75852368972547
C        -1.04142070348179    5.03746443416827    2.47765597593403
C        -0.05298171846033    3.84057119780915    2.33657459082575
H         0.46177506789575    3.65647425197201    3.28514090718206
H        -0.66948285702386    2.97406892279678    2.08502942667490
C         2.14512850973414    4.73528237170739    1.65701105418523
H         2.96388113655047    4.37312427350421    1.03051519446541
H         2.37714167962143    4.52945340762601    2.70655690193041
C         2.07574779753174    6.27526636410064    1.42210793274732
O         1.15793559470743    4.85410606488599   -1.41538650089356
O         1.64187086494550    5.36943269376686   -3.51972391350128
O        -1.16806774826172    3.95074288452744   -0.60581212587143
O        -2.87608362879739    3.57444730454947   -1.97115091266994
N        -0.88530592455557    6.47649104509834   -1.23748687916065
H        -1.09312055775541    7.35233823913820   -0.75851773711930
C         1.04142288805284    5.54373396051589   -2.47765887774147
C         0.05298142460979    6.74062649775713   -2.33657612217807
H        -0.46177096676438    6.92472168674678   -3.28514597316699
H         0.66948225492398    7.60712716847893   -2.08502796119595
C        -2.14512975815762    5.84591740394414   -1.65701257853680
H        -2.96388097359447    6.20807717744079   -1.03051645594746
H        -2.37714163985134    6.05174159018938   -2.70655985674042
C        -2.07575512758231    4.30593272171100   -1.42210599928966

