94
CSD_code = LOSCIH | q = 0 | S = 0 | Stoichiometry = C37H50N2NiO4 | MND = 5
Ni        6.24678080348447    0.10901605016723   16.16452873755910
O         6.23002414184997   -0.27951650758696   17.95614605570669
O         6.18975935415252    0.50675468132336   14.37790857248186
O         5.06205524310347   -1.65687258726772   15.77652743157710
N         9.10124160783133    1.06168660598920   16.19671897874341
C         4.62003898090043   -2.38557198384201   16.68486263445170
C        10.37415999680961   -0.70593572950227   16.36011872879680
H        11.16930695009500   -1.41823348419265   16.43488744632698
N         9.05939545583622   -1.07929003980560   16.26298727638598
C         8.26731397144330    0.00557698331323   16.16160151157159
C         8.71613920162501    3.05060989499945   14.85421618972533
C         8.58283276238938   -2.42017691005670   16.27721040994640
C         8.64597197680074   -3.14954587602291   17.46754836799645
C         4.64475058180092    2.31497608212140   14.32686310216252
H         4.09676520492354    2.96815920743681   13.66641240374359
C         9.18554897973793    2.31767922811281   13.61806131942772
H         9.00727087546490    1.24804904919672   13.76643209716988
C         5.44912893810612   -1.05423939766118   18.58036109027096
C         4.56409630572753    2.54164059574889   15.71087629791758
C         5.39148116971319    1.27957006694166   13.77633615117092
C         9.20897406662001   -2.56109778666177   18.74096628366568
H         9.28187438697514   -1.47544198031548   18.62799987893812
C         8.23386510103344    3.07673936084323   17.24995715189779
C         8.18689145300504   -4.45996796031170   17.46063663363020
H         8.22896161924834   -5.04561239618850   18.36535381915247
C         8.06653603977155   -2.97406139126251   15.10063396947493
C         7.61891416241553   -4.28730413139497   15.14303777740909
H         7.22244814622097   -4.74546519622371   14.25175362269390
C         7.67310169065641   -5.02322920524894   16.31023265045388
H         7.31701825550618   -6.04331614924091   16.32222583966746
C         8.32829149559997    4.38118594548638   14.78449713808739
H         8.35580553700480    4.89957097030426   13.83966529595405
C         8.06957817869444   -2.20851470487932   13.79870711436068
H         8.07960914333935   -1.13895253392186   14.02047669621522
C        10.60771595824524   -3.12449212443381   19.01227431531601
H        11.01868080008619   -2.68640331366714   19.91919825338685
H        11.28692662596307   -2.91243437061113   18.19005485185580
H        10.56094348055466   -4.20362674623876   19.14053346846137
C         3.90875841372771   -3.66766095599470   16.29243050741401
H         3.83804869739213   -3.73259887716349   15.21007533747317
H         2.91148040179497   -3.69323510757858   16.72507916220013
H         4.46997949087983   -4.52105632552401   16.66777872042685
C        10.68511925826082    2.54715430988026   13.40086441428868
H        11.01191413575337    2.04145964195747   12.49482559907015
H        11.26988346660329    2.16637253299003   14.23368130953801
H        10.88971591615170    3.61086828495594   13.29630687263452
C         8.21208523911791    2.39731107272755   18.59798892174166
H         8.30033453443676    1.31754418071876   18.45259388544605
C         4.71553420267541   -2.11380777912547   18.06226994419735
H         4.18262163050143   -2.75570340697823   18.74605517038580
C         3.84461827413364    3.79896838922719   16.16152895354713
H         3.77905418091028    3.81657002295277   17.24606861982403
H         2.84528437277274    3.83578162859700   15.73464194325382
H         4.39761815565170    4.67225348150319   15.82094707852111
C         8.67583000888730    2.41778486223314   16.10063658404193
C         9.33591667631816   -2.56724208356627   13.01316521644048
H        10.22989556770998   -2.32419095185925   13.58531849431969
H         9.36695709240323   -2.01508531703698   12.07635972585085
H         9.35435282611991   -3.63174980635432   12.78701161353160
C        10.40023687750672    0.64707885255086   16.32400842975562
H        11.21857956582440    1.33347588505045   16.39667794528770
C         5.26684981167580    1.04584615476440   12.28051605306842
H         6.17690528149464    0.59281228003296   11.89780223701333
H         5.05334599470088    1.96787482508232   11.74774121161783
H         4.44522179969218    0.35026397077629   12.11566242142323
C         7.85467165922007    4.40775873960760   17.13133117758863
H         7.51859967095997    4.94706652423684   18.00257683825421
C         5.33877483116059   -0.78669322354247   20.07264490700334
H         6.27077139868617   -0.37073986930914   20.44559039855435
H         5.08225990536282   -1.68630094214012   20.62421105717416
H         4.55355193763682   -0.04740504843583   20.22433789231417
C         6.81267779911016   -2.46190411715787   12.97022646597968
H         6.81098565402777   -1.80527185237540   12.10341453101882
H         5.94092519015927   -2.23621912808504   13.57796712728407
H         6.75556679119495   -3.48710464999938   12.61231288676260
C         8.29357684411294   -2.83974182124902   19.93452748253171
H         7.26417634306493   -2.61900620426350   19.67032121150890
H         8.58234856855638   -2.21616636180595   20.77784714914194
H         8.35816832146277   -3.87846351630848   20.24866253502115
C         8.41617440072848    2.74610732382011   12.36802217911040
H         7.35216230136426    2.78900640383796   12.57893147663779
H         8.58557862979351    2.02896810063941   11.56781052146715
H         8.74595476659734    3.72081811033877   12.01584871549828
C         6.88895253371262    2.63528179375198   19.32355654224736
H         6.07352470249709    2.29648484837342   18.69026779611425
H         6.74358403022830    3.68409980761661   19.56992122045631
H         6.87182961174284    2.06612225675587   20.25014485738523
C         9.40048836366739    2.88318393021450   19.43424610465062
H        10.34204717769435    2.66842197368136   18.93149611421480
H         9.40689515715225    2.38725240516749   20.40245923112711
H         9.33874672206300    3.95704197631083   19.59788438167577
C         7.90182812640529    5.05432717591856   15.91308586414820
H         7.60320525479001    6.09017204492229   15.83994490554667
O         5.02823279101545    1.78650133921233   16.58846249351420

