41
CSD_code = LOSDUU | q = 0 | S = 0 | Stoichiometry = C17H15ClMoN2O5 | MND = 6
Mo        8.84081678716595    3.90018291883358    3.66792404334340
Cl        3.27996721351264    6.83589051111419    0.55431044428044
O         9.30259549208620    5.44473691421636    4.01497443331126
O        10.06067312053446    2.83920395264269    3.36513260583813
O         8.30516586247481    4.18533957402875    1.86942963427744
O         8.37295400599729    3.38080828223016    5.40324568344390
O         5.29218253439724    3.39933934935421    8.17170021229635
N         7.29957836207142    2.23239608508460    3.33564908499826
N         6.65374219374388    4.72725797831406    3.87450129409922
H         6.68430418549130    5.55387248724962    4.47497744127188
C         7.65244098754473    1.07320373252866    2.79064394337039
H         8.66353794828616    1.03649083304383    2.40633458200689
C         6.78994295081973   -0.00715044086696    2.73127627831838
H         7.10849882027146   -0.93253546828085    2.27989251713213
C         5.51566459354196    0.12844703818342    3.26572535890455
H         4.81568402859400   -0.69288310820394    3.23902807207286
C         5.15332273841888    1.33694589636282    3.83350294651567
H         4.17241197375557    1.47785162251148    4.25926516508818
C         6.07772197662789    2.37692234010584    3.84729593004260
C         5.79079729774433    3.70969129857968    4.49796287161555
H         4.73228311598335    3.95977521153629    4.35427839873366
C         6.25735879953580    5.10167354314130    2.54282433816064
C         7.18780278228270    4.79144953323819    1.53193510573269
C         6.87007524955770    5.13075838793217    0.20901454736969
H         7.58343251862514    4.90554276516111   -0.56861644287274
C         5.67363769270199    5.75366537894437   -0.08472774332235
H         5.43491189987993    6.01679677079709   -1.10312089161453
C         4.77415132511292    6.05189711349552    0.92974313870775
C         5.06064563702095    5.73356741210011    2.24820122193503
H         4.36017275715141    5.99286174195000    3.02868816789582
C         7.93918942810193    3.23377079360177    7.71944524572941
H         9.02814571993834    3.19858774789195    7.69931167989577
H         7.53740024101171    2.32291966703990    8.15892366765986
H         7.59558074945532    4.05670984145016    8.34238230294899
C         7.44848593832950    3.39851936904055    6.31242350571222
C         6.11614462954018    3.56940840591731    5.97960010819987
C         5.07055722050749    3.60011573923643    6.99104416094566
C         3.65296169867471    3.91472706958306    6.54135712716747
H         3.02142118898539    3.94287390902920    7.42570036394788
H         3.27234810605424    3.14987590051531    5.86860827459927
H         3.60559022846779    4.88339190136467    6.04881118024094

