57
CSD_code = LOSLUB | q = 0 | S = 0 | Stoichiometry = C26H20N6O4Zn | MND = 6
Zn        2.14470738460910    2.95187437437332    5.47646717496544
N         0.35937044466161    5.08796158360461    4.93681525562956
N         1.63101229555978    4.75942384216534    4.83088485697733
N         4.04040215066188    3.74556113935792    4.69970819510693
N         3.13235834486429    0.97517354627266    7.24933900274721
N         2.65399338499337    1.11429886503227    6.02939722111800
N         1.76348738181432    1.76860638845311    3.65709659905196
O         0.10531157500399    2.99815680276444    5.85690706695337
O         2.82943495721746    3.24710327614167    7.41139648795699
O        -1.73500232064827    6.56656079357766    4.63866991391968
H        -0.78221766732264    6.29572621017496    4.60305789477003
O         4.13604435785421   -0.28511211195599    9.26368566868495
H         3.73929727116108   -0.14401660513442    8.36624587541639
C        -2.40983789627501    5.57744531603277    5.23659459634082
C        -3.78216702066410    5.75141541520478    5.43558279109995
H        -4.22655977972851    6.67507836166559    5.09871205437863
C        -4.53870737472017    4.77580058780533    6.04659843454986
H        -5.59702937579652    4.93437570509599    6.19335337735492
C        -3.94723626373754    3.59312910923283    6.47573386877094
H        -4.54141666336725    2.83160564136994    6.95719831413592
C        -2.59794266087049    3.40397676395470    6.28265082369031
H        -2.10863119270191    2.49744895415399    6.60580157484390
C        -1.80774310321447    4.37869092709730    5.66594895233339
C        -0.37465833481417    4.09485275981889    5.50062460558683
C         2.53412167454195    5.53612346456760    4.34677860180119
H         2.32297610068650    6.54343744566264    3.99798039524378
C         3.87635501971794    5.01756517956267    4.30372418132778
C         4.96301023398458    5.79241399776706    3.88204370008430
H         4.80072977877692    6.81041052107029    3.56314311333862
C         6.22702257586570    5.23870740799188    3.89378136689006
H         7.08275727622167    5.81767238369627    3.57921690744616
C         6.38208452647172    3.92575340927650    4.32089563851073
H         7.35322147140020    3.45890943576081    4.35102344209385
C         5.25224836771548    3.22417801919481    4.71099742828196
H         5.32355767250004    2.19844024275065    5.04705865456436
C         3.80410720862346    3.29195961473830   10.00118219649806
H         3.45584294830765    4.19177149818125    9.51670435184860
C         4.29934778500431    3.31991324556093   11.28477889010550
H         4.34770688480432    4.24966433690788   11.83069219231988
C         4.73578026529860    2.13866064747355   11.87375331651239
H         5.12615734834394    2.14942426280929   12.88084609175354
C         4.67183112952134    0.94984426423940   11.18092770755535
H         5.00452951622670    0.02456925307498   11.62515105838226
C         4.16961478627715    0.90356888812549    9.87749906241514
C         3.73010549420142    2.09898798698967    9.27580928630395
C         3.19155492902737    2.15982303970490    7.90894511499366
C         2.47101212500325    0.13546948919482    5.21609736444194
H         2.68081903778044   -0.89802829645144    5.47810092524889
C         1.94267526143007    0.46421608359049    3.91802474066720
C         1.62043833790669   -0.51628621957714    2.97259004330342
H         1.77869477256841   -1.55728230884594    3.20833374392996
C         1.09433910263044   -0.12949389346387    1.75686675281362
H         0.83171351026760   -0.86690696655879    1.01277714365087
C         0.90455491508647    1.22384405516806    1.50629164190904
H         0.49198734914756    1.56672165985187    0.57130483575863
C         1.25863578050724    2.13025995791681    2.49307482619321
H         1.13149691960124    3.19385024781315    2.34173467742561

