78
CSD_code = LOSLEK | q = 1 | S = 0 | Stoichiometry = C34H34ClN4O4Zn(1+) | MND = 5
Zn        9.39489141949039    3.64488853526251   13.52986093121978
N         8.08980263758413    2.76616879004760   12.18275910910352
N         9.20460329739276    1.82761920210896   14.36660211840189
N         9.68249563229837    5.36968037873170   12.48902091321257
N         9.05621617577941    4.94236154348866   15.08297534257281
C         7.42791488816913    3.30472559567768   11.16875019285326
H         7.27210861767611    4.37366198979113   11.21722997007027
C         6.94896221667065    2.56133590676091   10.10376802050356
H         6.41938888136358    3.04049973081281    9.29660615472825
C         7.17381924976542    1.19281705539962   10.10509350902357
H         6.82194837508627    0.57571478312435    9.29273153318154
C         7.85406794759260    0.62686997009759   11.16880722534086
H         8.02183642962484   -0.43667113675801   11.19430673726555
C         8.31204031641340    1.44587451054529   12.19959945255436
C         9.02549270643949    0.93421559440307   13.37695111687279
C         9.48064104072161   -0.37090593834057   13.50345800149751
H         9.38067391687870   -1.07627009047880   12.69624017353710
C        10.09116862199039   -0.75879060108865   14.68697898873130
H        10.46455450217113   -1.76487052192759   14.80330452247297
C        10.19559501726160    0.14524986613787   15.72922124644977
C        10.69481419890313   -0.17830321312050   17.09075226551231
H        11.00285601170330   -1.21505386460295   17.20487759399646
C        11.65688372420449    0.94796312894929   17.56239471749359
C        10.36899688722805    1.76078833938133   17.87425534729610
H        10.42504598610474    2.41620346070469   18.73821847677617
C         9.86025638895741    2.48418420111498   16.62034117755304
H        10.62097919399066    3.20370194845567   16.29802756949384
C         9.74432853934179    1.46057606332238   15.51692549730856
C         9.63821406161560    0.41645236618006   18.04369953027479
H         9.70032837950877    0.01832429148295   19.05118812344920
H         8.60866951785278    0.35739249997491   17.69466284724086
C        12.40365659826491    0.56815003117469   18.83757449572929
H        12.93263829579307    1.43606096066133   19.22450373102822
H        13.13696259070546   -0.20522424099838   18.62197164002663
H        11.74224534038809    0.20012878646989   19.61555458443842
C        12.66729100768348    1.49075272651920   16.56403382977502
H        13.08695878602667    2.42346733181829   16.93491537087999
H        12.25528959227728    1.67391357110498   15.57752209113363
H        13.48200024688832    0.77988970613379   16.44649816610411
C        10.18739585058273    5.45665561744981   11.26473276545580
H        10.01935326264553    4.60554054244288   10.62044967164829
C        10.90421103272767    6.55794946936689   10.82930656245869
H        11.30702967286736    6.58127831298780    9.83070708846744
C        11.11360234733717    7.60166847375380   11.71574499420250
H        11.69432583026679    8.46337260428797   11.42538442504207
C        10.57058389311339    7.52145674395085   12.98722975097190
H        10.73757828750720    8.31204365714256   13.70024368334597
C         9.85126154725092    6.38447241225583   13.34409036167488
C         9.26268988146433    6.20693817643939   14.67905889736211
C         8.93837245497253    7.28943226464194   15.48718673456965
H         9.06994980012201    8.29851737434519   15.13413941970278
C         8.40406877367185    7.05232887152859   16.74242840990983
H         8.11352075940500    7.87352308831613   17.37985792533103
C         8.26538220460326    5.74743177752762   17.18129877759080
C         7.76664484028572    5.37374054625477   18.53064839704036
H         7.49647357222212    6.23015132765489   19.14420092912548
C         6.75279851464644    4.20532203711910   18.38288429868139
C         8.00294142902235    3.29456038036764   18.24608013497504
H         7.91070933288116    2.29508980729531   18.66213708665316
C         8.51536308991338    3.26879420664829   16.80089226078112
H         7.76404016607947    2.77125486079105   16.17710620399057
C         8.63024186764541    4.69867244628883   16.31521793203939
C         8.78192400619949    4.34369773763184   19.05901571341921
H         8.72015790229184    4.19079402164196   20.13140718355547
H         9.81564464274154    4.52948321805373   18.77677389540390
C         5.99155710791938    3.93561532204993   19.67650393192854
H         5.43316452967358    3.00638978475334   19.58871377688989
H         5.28404159463037    4.73913970805220   19.86747462633909
H         6.65020136254122    3.85418109968959   20.53475559233501
C         5.74514605760647    4.27022796116217   17.24285858897144
H         5.26581925146914    3.30105929764026   17.12145847475059
H         6.18952602608268    4.55587056864476   16.29338849719075
H         4.97373843529707    4.99887172774410   17.48270766261628
Cl       12.01187539365784    3.20523407794215   12.91123650611190
O        12.85108972394568    2.12707170834410   13.20312543295779
O        10.87221438278486    2.74312700160130   12.15680399877840
O        12.64633112244925    4.24304103529764   12.21537953570491
O        11.45759281168069    3.72845747239069   14.14248755688662

