58
CSD_code = LOSNAK | q = 0 | S = 0 | Stoichiometry = C29H19F7N2Pd | MND = 4
Pd        1.59824537131917    6.93817760651837    2.44006239758587
N         0.95803942911682    8.95817848811699    2.25082275499267
N         2.14038387381986    7.41282341692526    0.34309822247373
F         2.05024742686592    4.57434990574865    1.33115029355687
F         1.68869068799966    4.24208678381354    3.42535922671992
F         2.28399710787235    7.81853796497366    5.59811699640005
F        -0.87678814728515    5.70491264945984    2.88021151391399
F        -2.51297839761870    5.25550034604226    5.09569850263727
F        -1.67254360355764    6.09420890434852    7.55146772710091
F         0.71443632307728    7.38764972686570    7.81589259702920
C         0.35373235702118    9.69495591653890    3.16073199871974
H        -0.14447484014919    9.16711221765977    3.96490219840933
C         0.32921960565553   11.09167610531175    3.11844738474380
H        -0.17696476146735   11.63917720023761    3.89722809006230
C         0.95245773131161   11.73954979656428    2.08038582287628
H         0.95787037580287   12.81745748647489    2.01286406722235
C         1.58105957528234   10.97867070533442    1.08088670633861
C         2.21197029011121   11.57017160634047   -0.04957630664392
H         2.23320098961800   12.64787043611072   -0.11439985107095
C         2.75035022142411   10.80146464054426   -1.02504969008672
H         3.21051357063424   11.24925695190944   -1.89338384978987
C         2.72036515058430    9.38077340701938   -0.94253244071543
C         3.22860229172805    8.55810744084164   -1.96091139131576
H         3.66457544105266    9.00680730529146   -2.84150159010004
C         3.14403630408435    7.19781452385251   -1.81548786458565
H         3.50002608818093    6.52872763955546   -2.58229374090336
C         2.59848426791885    6.66946528947763   -0.64015827690609
H         2.52962569638570    5.59956942101746   -0.51706981692938
C         1.56201804235813    9.57168033525560    1.21398575247885
C         2.16213374374448    8.75501893307554    0.19463116818301
C         2.33174057224677    5.11576263925256    2.58120416448093
C         3.85574677902908    5.06524148829796    2.84527836290785
C         4.10068751505355    5.09881120124105    4.35457006582080
H         5.16543009070236    5.19526367734979    4.55369678898567
H         3.73322131995397    4.18455472894155    4.81353710058129
H         3.58136863058234    5.94189539424048    4.80294444197701
C         4.54161922903377    3.85006643504497    2.17370128143598
H         5.34772011757409    3.50257187269750    2.82035456405139
H         3.84176981719136    3.02838283944805    2.03342724655763
C         5.12032272042328    4.35190463064329    0.83956472582075
H         6.10535959924491    3.93034911055720    0.63616117085009
H         4.46857556543381    4.08708616312746    0.00378760487733
C         5.17110976483540    5.84212524093056    0.99893541121750
C         4.47852700916245    6.24576023422090    2.13520894876357
C         4.38745659344957    7.58774168669852    2.48364020023424
H         3.90547162102925    7.90127869130473    3.41202734159174
C         5.00337218480364    8.52311923429014    1.65872940040969
H         4.95920955271767    9.57349501219673    1.91150833818183
C         5.68371620514494    8.12272419477536    0.51900942781023
H         6.15371024380054    8.86497468621627   -0.11036467129908
C         5.77712671294063    6.78003403177607    0.18292815659760
H         6.31782146121344    6.47381410346490   -0.70094784676590
C         0.74561441794404    6.69554786417703    4.22539273361773
C        -0.49427280456529    6.07205481100209    4.13009302455395
C        -1.31974246275260    5.85279434749409    5.22143983960230
C        -0.89482075238932    6.28765408663125    6.47622939220158
C         0.32450280351969    6.94257198547854    6.61079689564280
C         1.11430327987011    7.13866645696853    5.48366728680869

