48
CSD_code = LOSRIW | q = 0 | S = 0 | Stoichiometry = C23H19ClF2N2Pd | MND = 4
Pd        0.81405440106776    2.31461595655823    4.57631290330014
Cl       -1.27822600320832    3.11579829414815    4.50336107942463
F         1.76214207165785    1.77888498865057    7.03553782281921
F        -0.23807299538516    2.52362327488894    7.19305802016900
N         2.83486553633470    1.55304054595725    4.22297334186115
N         0.76345861346736    1.87559222997134    2.48974400884172
C        -0.26290685337165    1.98879342437635    1.67314566859758
H        -1.23337337384656    2.11928017901715    2.13853053587027
C        -0.12512796381979    1.96598359766465    0.28143800171145
H        -1.00029430282701    2.06099331437974   -0.34129698243461
C         1.12712482205326    1.82896479327779   -0.26597134299144
H         1.27450276850358    1.81496397544983   -1.33618581146837
C         2.23714113338497    1.70195743457486    0.58616492309928
C         3.56831464569574    1.55344075676858    0.10638557008754
H         3.72890938982210    1.55516266114557   -0.96161681912414
C         4.60322674153742    1.40818671238147    0.96726683833876
H         5.61351535920434    1.29077834828581    0.60385847261718
C         4.39617445403916    1.39240063194651    2.37578873579650
C         5.44758600686438    1.20189170154004    3.28663483064834
H         6.45603404816106    1.07646941045619    2.92065479282707
C         5.15938886948161    1.16336020932195    4.62693216836275
H         5.93142609395809    0.99994242837569    5.36156812158946
C         3.83875443177044    1.34122248183497    5.04852352197913
H         3.60562589193643    1.29062970859364    6.09962950179407
C         3.09314311836217    1.56327953760687    2.89470683109604
C         1.99989168432399    1.72446790977576    1.97897512686537
C         0.91374182615940    2.74492427488649    6.49494887060587
C         1.47795470933011    4.15809086323124    6.78379593695828
C         2.30611382777375    4.21860990453308    8.09035567135120
H         2.18187757966876    5.20740468166680    8.53284362250152
H         1.96500276464989    3.47819726702694    8.81151779236864
C         3.77646968098292    4.00542233326996    7.69120753044825
H         4.08828722668394    2.97443593646326    7.87288080863220
H         4.45056028249576    4.65716039735006    8.24849610234096
C         3.80323189956508    4.29948485212970    6.22063046611740
C         2.51447708131808    4.42563549300884    5.71396222964684
C         2.29341518843081    4.69639578072301    4.36753389454687
H         1.28721629281690    4.88331017266759    3.98456912654002
C         3.40034738240034    4.82325951937993    3.53385758634037
H         3.25949744419344    5.04433296262250    2.48487259088720
C         4.68508147957332    4.68001986221392    4.03592712635184
H         5.53131273936144    4.77628850891150    3.37072694825749
C         4.89689443905947    4.42683248598319    5.38300194836000
H         5.90096139753250    4.32995132709207    5.77007731754455
C         0.33375332850267    5.17233988557318    6.78122703556927
H        -0.28383055575039    5.04958711376390    5.89297208875580
H         0.73528970283962    6.18308247321826    6.80177430612884
H        -0.29733430675037    5.01920939731063    7.65310113807296

