81
CSD_code = LOSTOE | q = 0 | S = 0 | Stoichiometry = C32H41Cl2N3O2Pd | MND = 4
Pd        1.72722194273243    2.53142032679439    3.91597160696248
Cl        1.83295786833977    4.28348371422841    2.39430610854974
Cl        1.33313359369345    0.77353628331102    5.36027551578838
O         7.84611607244717    1.83127561339100    0.66257043883299
O        -2.26197041104916    4.09673146735485   10.21468441331970
N         2.11637743937878    4.69051439950415    5.75094983179996
N         3.97496633210625    3.35819521856980    5.55547177493935
N         0.73486692201540    1.46419282973990    2.52978671470388
C         2.69957033829214    3.60813201977713    5.25176903504647
C         2.84615059816748    5.60121153475026    6.61876899039024
H         2.31630360112896    6.55427319845769    6.64952292354686
C         3.01391780091769    4.96981754558238    8.00712791046532
H         3.16349669567963    5.74097241865113    8.76198720597379
H         2.12473731476211    4.40303977485779    8.27948805433472
C         4.25245004881272    4.06428864841963    7.86718346913989
H         5.02773408560369    4.32896198700494    8.58594884174778
H         3.99699657996917    3.01684133695156    8.02610641222477
C         4.74560442752397    4.27534934050708    6.41995329313500
C         4.34459729156296    6.05418831311542    4.58871662749435
H         5.37221511358401    5.99419946272509    4.23810761607951
H         3.99213589478974    7.07176552283090    4.43288166916365
H         3.73940486379898    5.39469725584682    3.97226507646460
C         4.27959446359478    5.71375795130240    6.07697519119788
C         5.05197091787077    6.79277368575595    6.84082813845077
H         5.20703898375566    6.53334027538801    7.88289449336495
H         4.49578008723085    7.72734496276345    6.80302575069036
H         6.01980847539770    6.96633615089272    6.37770564222998
C         6.24609008563580    4.07670130070424    6.26891885844722
H         6.53368592113203    4.10438530612715    5.22198714032327
H         6.56659746476854    3.13142045848534    6.69580477541682
H         6.76931361591661    4.86776513996861    6.79764256917896
C         4.53990592222992    2.04243075431720    5.25863850335605
H         3.69743759994901    1.35199199868119    5.09840085052625
H         5.08923137415583    1.69203545734071    6.13490052902637
C         5.42148675293550    2.00004807744121    4.03524367226566
C         6.75682919526254    1.61690111462899    4.09959008031114
H         7.19805610394924    1.34758615665186    5.04832704478258
C         7.53174627197899    1.56631481406739    2.96037561246319
H         8.56829921753365    1.27122774608958    3.00448473586132
C         6.99128398657700    1.89971008676990    1.71734783934571
C         5.64907298515296    2.25953081843411    1.64185624136621
H         5.18955664678284    2.51103563452360    0.69904371475594
C         4.88140858162807    2.29756031493156    2.79240868948192
H         3.82658041929215    2.57589017806840    2.72003868434661
C         7.37408713274261    2.17294750035685   -0.62555748182331
H         6.98319543252992    3.19978309851802   -0.62523350955728
H         6.56619034336333    1.49032447795029   -0.92478047543569
C         8.54349856542729    2.05615068928038   -1.59042993636525
H         8.21904992322038    2.30082146687776   -2.59767191288340
H         8.93504598126277    1.04287383061483   -1.57642268980212
H         9.33673727653237    2.73704503948732   -1.29494122646447
C         0.71889093028294    5.01141615764787    5.49985110983627
H         0.34378630317914    4.33284994634284    4.70951059513270
H         0.65557056366865    6.04137270196029    5.13431568583140
C        -0.10248230691938    4.82533528917575    6.74746058772549
C        -0.58161984353267    5.89740304676191    7.47987991340675
H        -0.39616814096505    6.90771861544649    7.14267976727719
C        -1.31097194039548    5.70077605218914    8.64217285526154
H        -1.67314104915522    6.56045369482110    9.18385499077683
C        -1.56440413941780    4.40979661364572    9.09112911023477
C        -1.08100496919419    3.32515892566816    8.35281867064702
H        -1.28761629322996    2.32877367466744    8.70944194097726
C        -0.36394603746687    3.53286288722625    7.19706290218733
H         0.00787067003930    2.68879255505122    6.62806244652244
C        -2.79547172201998    5.13903521535079   11.00520777043858
H        -3.49263518020037    5.74587013834952   10.41002134009561
H        -1.98705261393125    5.78934185147991   11.36908047761014
C        -3.52411066377723    4.50298431207737   12.17856676904930
H        -3.94939130065446    5.27523591234126   12.81325929141445
H        -2.83250049264187    3.90082435553872   12.76126879756510
H        -4.32038976387359    3.85955904843291   11.81483985831801
C         1.35803548172044    0.56396581917634    1.77630164232677
H         2.43462756136679    0.47789567086168    1.91212283414888
C         0.68151305504046   -0.23396654626604    0.86951348710924
H         1.22148832476556   -0.95443867657618    0.27549569484529
C        -0.69188835837366   -0.09048067967216    0.74653990712782
H        -1.24943038303036   -0.69851725157359    0.04999661082812
C        -1.33499521739220    0.84760318012239    1.53902236056120
H        -2.40246791885411    0.98999704203857    1.47906816135863
C        -0.58195843992243    1.60559582408752    2.41929359738005
H        -1.04660025720823    2.35216192493950    3.06211576912426

