48
CSD_code = LOSTUK | q = 0 | S = 0 | Stoichiometry = C23H19F2IN2Pd | MND = 4
Pd        3.14945807315581    3.90326942377875    1.55102958827358
I         3.54391217807405    4.62263865029613    3.95055334325112
N         2.65345838620167    3.36363092428220   -0.39341447651604
N         2.01026306930435    5.67653765874412    0.91083314511682
F         9.37370833323452    1.74297485501894    3.82485035440562
F         9.47843655220681    1.24599468056155    1.70912191932121
C         4.10350742838145    2.18695672980655    1.86740193337904
C         3.43287796475017    1.11876862461423    2.43953994548061
H         2.43996444993491    1.25913113098998    2.86360167670306
C         4.03707519422917   -0.12972074043880    2.48931949263872
H         3.51922079292545   -0.96235224319537    2.94286784224285
C         5.30255235252582   -0.30037373904869    1.95734703183544
H         5.77475869927799   -1.27111743191891    1.98818047074926
C         5.97546645669050    0.76939252933257    1.38966243406510
H         6.95910606139619    0.61386677442663    0.97367668925351
C         5.39128462056613    2.02926502346355    1.35189741009577
C         6.07889483575419    3.23519946073003    0.74412070687019
H         5.64046332862365    4.14921798685349    1.19662579149305
H         5.86856053623325    3.26524104859351   -0.33371099001627
C         7.60260267649270    3.26002893498219    0.92412556551659
H         8.06638312112767    2.52792905292187    0.26161891372923
H         7.96614706726822    4.24857366685288    0.62761155518804
C         8.02641038559712    3.00016614322003    2.34377852515850
C         8.90284139014721    2.05022019692998    2.61500028600544
C         7.43261805364474    3.83408465865559    3.43151664654932
H         7.97354798700098    3.70698352817892    4.36412998248789
H         6.39651706437491    3.54341225194668    3.59847338163577
H         7.44483655344528    4.88522787218332    3.15213223238452
C         2.94678078959557    2.23765150876642   -1.02322823829242
H         3.54283675082869    1.51356442777440   -0.48088612148100
C         2.52527477144602    1.96198808375157   -2.32343694236860
H         2.79922963856571    1.02434683478243   -2.77987831097822
C         1.76966245106118    2.89076910694721   -2.99960638021608
H         1.42827125352331    2.71253871384376   -4.00829462335598
C         1.43691017182575    4.09291970317190   -2.35592261458476
C         0.65389033156246    5.10299548522529   -2.98388382940055
H         0.31512688026276    4.92381557228639   -3.99348198110790
C         0.34030332860444    6.25090444254996   -2.33825601180177
H        -0.25515124436036    7.01347564691943   -2.81796790081549
C         0.78336453882002    6.48533510552235   -1.00661783699324
C         0.47389084024434    7.65688307220804   -0.29627972315593
H        -0.12397259590982    8.42210860266458   -0.76946871307809
C         0.93693294097367    7.80406384173976    0.98870309958121
H         0.71796123607812    8.68794447666474    1.56593387497749
C         1.70550523084805    6.78342958172194    1.55582166180370
H         2.08028952456350    6.87534894964224    2.56864761749520
C         1.56619149337888    5.50710822408358   -0.35234117026160
C         1.90232805551696    4.28996096696714   -1.03564725326860

