75
CSD_code = LOSTIY | q = 0 | S = 0 | Stoichiometry = C30H37Cl2N3O2Pd | MND = 4
Pd        1.95327471463900   16.06709813361644    7.58338504030171
Cl        2.33694581802673   14.01371478414777    6.59370423437220
Cl        1.55372571638824   18.02500529668443    8.73332873259982
O         7.86549168166794   19.47412530244294   10.80376779335309
O        -1.64593434255327   14.54018568105194    2.03920323109820
N         2.71367154362899   17.69097150885422    5.31837113468635
N         4.47491711012691   16.59183355776845    6.29062388755970
N         0.77431305153720   15.14728251509483    8.95335909012700
C         3.17987576140456   16.91087397809578    6.28536864987793
C         3.58490499007708   18.14897232562538    4.24717601291525
H         2.96876715495156   18.45757702837084    3.40230584141915
C         4.48566253898541   19.26994974014513    4.78398380726337
H         4.80420508562715   19.93386408029499    3.98091774848383
H         3.94689484298335   19.86631565059921    5.51994293909855
C         5.67865267198630   18.52991867206290    5.41775106851124
H         5.77440366775835   18.75243446605361    6.47919324021351
H         6.61848060433370   18.80223596094339    4.93802447003399
C         5.37945260960192   17.03040026606640    5.20827664007678
C         3.83576217997059   15.68259522264591    3.62254243707805
H         4.55556733205407   14.93154274367577    3.30596951653677
H         3.30754290071697   15.29163289925811    4.48833114157745
H         3.11049582615688   15.81674974568246    2.82213468029267
C         4.54821961029409   17.00654615898589    3.89812613966978
C         5.36414645211616   17.36904637489203    2.65493015516242
H         6.00935645521143   16.54333635888114    2.36701327281675
H         4.68454104668972   17.56057220777019    1.82679386932558
H         5.97656776845252   18.25237119489649    2.80264471562879
C         6.64463804542396   16.18998671828720    5.13915376549529
H         7.24819254179915   16.32696377298880    6.03101444112683
H         6.40256946545444   15.13750503048624    5.01652696876150
H         7.23685872701895   16.50708774641128    4.28555730880549
C         5.03395947330442   15.89952581866925    7.44757386012972
H         5.63158825096746   15.04783645404371    7.11997268930829
H         4.17958844562435   15.50376225231407    8.03483271331177
C         5.83304551102807   16.81833574494043    8.33727020302702
C         7.15591172698411   16.56525914150753    8.65807590363731
H         7.64511210293026   15.67829868412628    8.27892141624323
C         7.87157698432757   17.42202504165185    9.48086833191990
H         8.89946757623652   17.18832061085769    9.71017384508271
C         7.26025593653591   18.55752196196092    9.99714185981351
C         5.91923350561744   18.80590804932199    9.69283977171914
H         5.44908110509811   19.67887063621918   10.11640729396472
C         5.21758143977302   17.94496144834751    8.88031506446668
H         4.17210220729176   18.13314400324557    8.66994375614432
C         9.20772636670242   19.26965049304293   11.16709849951194
H         9.47324245539183   20.11311527905083   11.80259528233885
H         9.33560927214361   18.33936737464006   11.73053223947622
H         9.86548475314055   19.25709521996357   10.29145206228520
C         1.32280489787472   18.12154116259390    5.26147114309910
H         1.30727377930250   19.15082058057857    4.89150982259041
H         0.91516028555555   18.10811806314596    6.28254311167190
C         0.50764831362111   17.22046192900018    4.37093514101078
C         0.29247777492921   17.50781819136492    3.03309178350373
H         0.67125892853948   18.42755873882279    2.60862368056909
C        -0.42071069717795   16.64253196619578    2.21850216658124
H        -0.57028992128528   16.90351868484692    1.18247377252234
C        -0.93097827698958   15.46070189341576    2.74199172617439
C        -0.72419978354834   15.16960314311741    4.09308419995305
H        -1.12629587831826   14.24957209259122    4.48574833861968
C        -0.01871777391023   16.04096072026261    4.89093569644070
H         0.13902545575764   15.80889647026902    5.94984887661753
C        -1.88716276391707   14.77290807148897    0.67378509018419
H        -2.45774458874329   13.91390149661355    0.32421281636741
H        -2.47494499428439   15.68382646584264    0.51804698710984
H        -0.95378522254283   14.84081695003544    0.10531018092999
C         1.41200361561190   14.62257698759466    9.99684731670777
H         2.50055532209792   14.68197558370622    9.98461656112835
C         0.74300706276037   14.03033429744849   11.05350940078891
H         1.29821256406539   13.61863202367922   11.88144791303993
C        -0.64207583471427   13.98002705474778   11.02436915587517
H        -1.19499806434179   13.52408498177954   11.83170111472550
C        -1.30085368677271   14.53133059018074    9.93714519942065
H        -2.37735053618597   14.51890670490182    9.87308485008292
C        -0.55328463903685   15.10766741170810    8.92399001435424
H        -1.03766602432388   15.55991440707857    8.06303717362862

