37
CSD_code = LOTFUX | q = 0 | S = 0 | Stoichiometry = C18H14HgN4 | MND = 4
Hg       -1.09781244833284    0.00044572242028    6.29865068766100
N        -0.91597483723007   -2.44920603101942    8.54856415955961
N        -1.70314557042548   -1.37088966669899    8.54290059021971
C         1.63646736967424   -1.72716601663004    5.99351153648749
H         1.81345649610595   -1.07050012380837    5.15022389695126
C         0.27554871865278   -2.49654108395723    7.78935612141263
C         1.25600319923872   -3.42134980805207    8.13797846575586
H         1.12578867498125   -4.06278803784936    8.99679430216403
C         0.44316625565490   -1.61412125464778    6.70961363489082
C         2.60605756151428   -2.66397223144913    6.31688731049346
H         3.51163043842842   -2.72833971345398    5.73089358728889
C         2.41840325202628   -3.50772858353286    7.39613861835138
H         3.17571410605233   -4.22856083853515    7.66760980286715
C        -1.42679139923502   -3.40967232326395    9.34672579966777
H        -0.96504827936424   -4.36766540707763    9.46843026400797
C        -2.59631130660794   -2.92160254434830    9.88185958240215
H        -3.26270339828749   -3.41672157865266   10.55759125798656
C        -2.71901102929930   -1.63757555320133    9.34326310233528
H        -3.48786968753021   -0.90877365312739    9.50940728950599
N        -1.28016880425639    2.44909509485590    4.04733044348352
N        -0.49303660967856    1.37073696924838    4.05284035708426
C        -3.83261509469268    1.72706423416496    6.60239651298825
H        -4.00960587667590    1.07044334511284    7.44571762376053
C        -2.47171127992835    2.49635432626414    4.80649031344291
C        -3.45205735070644    3.42137569763309    4.45808258910770
H        -3.32177894379692    4.06286145530811    3.59933249990633
C        -2.63948059736007    1.61379757920755    5.88608358463977
C        -4.80210285621502    2.66403960033886    6.27918577724203
H        -5.70761287827807    2.72850309060090    6.86525903606397
C        -4.61441828686512    3.50779291732481    5.19994890278425
H        -5.37168213135186    4.22868362766987    4.92851340455008
C        -0.76932421944330    3.40963533994275    3.24926520469581
H        -1.23102316880437    4.36765133276342    3.12767188782249
C         0.40014598976757    2.92157328469384    2.71400885901816
H         1.06646029191560    3.41668432823929    2.03820652707143
C         0.52295301676780    1.63758108051648    3.25269635349917
H         1.29189068358545    0.90885542300010    3.08657011283048

