45
CSD_code = LOTHUX | q = 0 | S = 0 | Stoichiometry = C18H25NNi | MND = 7
Ni        3.24241208441442    0.35510837475346    6.30437084924337
C         2.73425964180217   -1.04964632729757    4.86080911368598
C         3.11113879552250    0.11888594799639    4.14287396371986
H         3.87425869266289    0.17291692619055    3.38173008001761
C         2.28528622009674    1.15617119681442    4.57510388112820
H         2.24123420981793    2.15688981382322    4.17462079450474
C         1.31052156174568    0.59637732579614    5.49348111458185
H         0.44041731816885    1.12369221131033    5.85299215036349
C         1.54978218845705   -0.78056236585419    5.58819133762405
H         0.93730109798680   -1.50985080818798    6.09665293711315
C         3.55344321391632   -2.30513198255846    4.94243246013006
H         2.99850379212843   -3.08683268047897    5.46645843524576
H         3.81059410646737   -2.68185216254233    3.94847954049866
C         4.85934835884789   -1.96514570349488    5.68623993680683
H         5.50272682612105   -1.40673807659742    5.00045455793875
H         5.39030349485186   -2.88534305775876    5.97951892881705
N         4.64668332371481   -1.11301339140772    6.88161159308489
C         4.05288799430021   -1.91921743934887    7.95368687573360
H         3.93733940808619   -1.30518287387068    8.84552852494238
H         4.69742742904079   -2.77738687810959    8.19380309622778
H         3.07447948165207   -2.29101636398495    7.65581134596609
C         5.95190534524022   -0.63927893015408    7.34826180377271
H         6.60368247004361   -1.48400259521644    7.61177447292649
H         5.81659184219936   -0.00589585268111    8.22322531057256
H         6.43656739512034   -0.04981468204047    6.57261063143397
C         3.53586205185356    1.75663527528523    7.54827621629420
C         4.53092841111535    2.70838239640426    7.29550632630168
C         4.83320800336321    3.67570992106632    8.24534321883806
H         5.60805141308473    4.39884053836993    8.02663273035671
C         4.16603416141474    3.72957466764883    9.45808214649880
C         3.17914133534389    2.78806115791483    9.70494441369646
H         2.64319427839307    2.80994189016048   10.64494636759962
C         2.85699573332639    1.81149996284009    8.77152344594925
C         5.28719474139147    2.70061733996170    5.99130206975520
H         6.36222731086076    2.71819894404636    6.16568609614785
H         5.02477226247773    3.57587208465551    5.39818397722720
H         5.02579017010024    1.80074648082991    5.41981338556838
C         4.48358447775944    4.78887615128851   10.47259871383019
H         5.46555752462677    5.21907468155952   10.29060012468155
H         4.45979736746604    4.37869815264507   11.48036973097235
H         3.74614433996225    5.59047238858368   10.42014576719122
C         1.76780825402928    0.82205161392762    9.09741972105022
H         0.80514364164415    1.32833804101319    9.15656586916042
H         1.95478173681518    0.33905707029675   10.05576135129973
H         1.71468649256843    0.06042161639188    8.31267459150422

