38
CSD_code = LOTNEN | q = 0 | S = 0 | Stoichiometry = C12H19ClN2O2PtS | MND = 5
Pt       14.83325041729565    8.16121349296128    8.96097298682366
Cl       15.37358597789012   10.45444189004720    9.43636891413395
S        16.49917475108132    8.41273524245612    7.11031801610532
O        17.39833631964684    7.34829148393155    7.52128145580271
O        15.61455756888080    8.05884439915956    6.01345052009350
N        16.12233002569721    7.25121697198283   10.37842055182260
N        13.08678728961482    8.50314183330527    7.80667912923305
C        14.31451678104826    6.30567740773679    8.67070042000260
C        15.00336070874974    5.31468545235349    9.34999720336288
C        14.55324172439913    4.00711778714073    9.24080781913649
H        15.06455063445027    3.20201991980559    9.74873185226581
C        13.43848191047006    3.73747482960431    8.45740640934498
H        13.08552443455558    2.71976215073345    8.37973288257024
C        12.78222757403696    4.73525173755187    7.74832807901500
H        11.94139680045615    4.48592069311954    7.11709374914144
C        13.22746472217708    6.04493989328893    7.85327263210815
C        16.25104020614713    5.80640652297701   10.03908177251428
H        17.07244427620963    5.71296025587190    9.32059774776525
H        16.50477033287650    5.23026640323648   10.93738701477337
C        15.37923142458142    7.39397752879392   11.63722469173928
H        14.42278798927368    6.87173846172777   11.56944903836282
H        15.20075312724028    8.45151984084031   11.84016794259032
H        15.95319316921762    6.96880725476502   12.46982368130234
C        17.44200939159734    7.86246563885980   10.52775643058716
H        17.99721227201139    7.75508446277827    9.59687462919090
H        18.00220074218744    7.38754978346367   11.34060672905282
H        17.32310074612741    8.92353873874075   10.74757238312606
C        12.74470775246898    7.24717582595871    7.08194467967884
H        11.66965248029614    7.21882647746764    6.86581387158790
H        13.29139585158802    7.25956566926573    6.13295844106393
C        12.06735583199268    8.77230149828103    8.82911715041501
H        11.95442337604423    7.90558185759935    9.48344595560896
H        11.09997576350461    8.98506853760921    8.35761790705853
H        12.36397149904735    9.63841535578439    9.42350385591142
C        13.14536233668296    9.63105194059098    6.87823061595267
H        13.89767474027211    9.43271181458909    6.11597912460916
H        13.42525169790194   10.53159918958084    7.42507246713344
H        12.17459735228105    9.79035175604033    6.39621124901324

