41
CSD_code = LOTQUI | q = 0 | S = 0 | Stoichiometry = C12H23B3MoO2 | MND = 11
C        -3.31053269175825    6.14147308104290    4.23174365410945
H        -4.16856073006762    6.80842208860442    4.35253520482815
H        -3.11339009172563    5.66772540366956    5.19223469985411
H        -3.58365618713833    5.36565827001357    3.51726554343736
C         1.55098994573142    6.08756987678763    4.39924434758710
C        -1.90383581497961    7.33826839332879    2.41799465100834
C         1.78743477105564    6.55079450036605    2.38778420076811
C        -0.80855041214999    8.25294385987355    2.40484524079419
C        -2.80930826442766    7.05051570030734    1.25936622364828
H        -2.27113623171935    7.09430576355996    0.31429640417069
H        -3.60978169508941    7.79440793107031    1.23048789419627
H        -3.26558955148140    6.06591674156831    1.34560370986483
C         0.57905995222868    9.49154395454563    4.23143587679788
H         1.05656734179926    9.20134599616059    5.16610851999007
H         0.04067776658159   10.42736095632461    4.39890139680197
H         1.36078775475193    9.67529902800825    3.49545851825822
C        -0.39053098029755    9.09264502835857    1.23540001250519
H         0.64871994415366    9.40429739930561    1.32878858888081
H        -1.01229821331259    9.98992927227595    1.18004490959240
H        -0.49784352946261    8.54630831242210    0.29935013866027
C        -0.36891593334407    8.43155760211671    3.75692297103024
C        -2.12634767347369    6.92927916469488    3.75618129012307
C        -1.21925672333823    7.64383634204514    6.09100054685049
H        -1.56109967470259    6.69799030186885    6.50907660343325
H        -1.90480003716155    8.42838368538033    6.42097610193496
H        -0.23465468034022    7.85958727544982    6.50246543066174
C        -1.17935022242955    7.59712542913135    4.59275772750431
B        -0.48204024381535    4.10782822477508    1.64151986679287
B         0.56099058261743    2.77404182261178    2.56569511399747
B        -0.62546693164076    3.71459510510640    3.39438360545104
O         2.83184792911059    6.79308631297693    1.95871263991027
O         2.46573174445236    6.05595076556093    5.10594721125724
Mo        0.05728969972781    6.29037007047066    3.19737292273560
H        -0.07894299320759    5.38953694341242    1.79018670259601
H        -1.60921711625650    4.13704181361133    1.27339348675386
H         1.69382161430366    3.09647463799547    2.52802120137884
H         0.30581560121823    1.67952714941066    2.22478695735896
H         0.20172368273575    2.90207395443597    3.90201088279616
H        -1.71249477039125    3.39892778832864    3.72799736758278
H        -0.31727995370270    4.83285216101688    3.98500439471271
H         0.20422301694602    3.77950189200635    0.73019723938454

