20
CSD_code = LOTSAO | q = 0 | S = 0 | Stoichiometry = C5H9AuN2O3 | MND = 2
Au       -2.28107106598468    1.33469165265801    5.75839685517782
N         0.55581154032566    1.65581898887063    6.72868205413487
C         1.87712582327106    1.85882192464786    7.17091455488789
C         2.77804579816315    1.90660806092858    5.93446457727057
H         2.47749560649351    2.71680290080646    5.27439954771870
H         2.72152484109682    0.97068969205529    5.38364289072615
H         3.80738601532228    2.06967351311660    6.24112416513489
C         2.25040265985681    0.68749023649088    8.08257999591874
H         2.17868546743731   -0.25433696255764    7.54372140085124
H         1.58689072736010    0.64642072745225    8.94311760371236
H         3.27070189827152    0.81161383340191    8.43421886141695
C         1.91233905417400    3.18637747713018    7.93174407964270
H         1.60398003404436    4.00493697231624    7.28579351354289
H         2.92295458225336    3.37836532544054    8.28105729625916
H         1.24610880451388    3.15273885503284    8.79049797402443
N        -4.69592646482698    2.01416794150188    4.73745329357735
O        -3.92436041853409    2.96795142756598    4.82276241163904
O        -5.81063578181914    2.09620502260841    4.31615731706105
O        -4.24561783343217    0.89023276497636    5.13346781189267
C        -0.52854128798653    1.48562964555774    6.36610379540991

