64
CSD_code = LOTZEB | q = 1 | S = 0 | Stoichiometry = C24H36ClN2Ru(1+) | MND = 9
Ru        2.52595965201890   10.11218395472220    1.99921523166188
Cl        2.90049616345804    7.90666072182068    1.29762654616848
N         4.71069894451452   10.23414892816208    1.75807748990041
H         4.84471399340130    9.21359127110428    1.73372081116769
N         2.74864740126938   10.65493543317475   -0.05991993316421
H         2.75350280832497   11.68214572927737   -0.08382843565376
C         0.46634750199703   11.18746956265826    2.31713897422780
C         0.33987954991201    9.81478531478418    2.61250236532512
H        -0.45593473219301    9.23860253680346    2.15394252328876
C         1.16432521776687    9.20806635148591    3.58716426897260
H         0.98981373109183    8.16909270650695    3.83884371651460
C         2.15110748186329    9.94016204905702    4.27270032927596
C         2.29503744390517   11.31440477005970    3.93975264502082
H         3.00946076246862   11.91083320301850    4.49660216360538
C         1.45847034719878   11.93668538481337    3.00071683972652
H         1.50721450536945   13.00985067721798    2.85698952380142
C        -0.50987284461083   11.87060783554719    1.40928210827144
H        -0.05485441282456   12.70824086514628    0.88373745704703
H        -1.32970530029120   12.26597049760573    2.01150035694819
H        -0.93502550636816   11.17651691876688    0.68764113272282
C         2.95448498027621    9.37081400866442    5.41882892840614
H         3.96203862334467    9.80300266487662    5.37008228696666
C         2.30240804503438    9.81853878689979    6.73368046907009
H         2.27089247106209   10.90318013073884    6.80708132801014
H         2.87127741831467    9.43288505351921    7.57491747852075
H         1.28557421968400    9.43770289531919    6.80218821587972
C         3.07317092969136    7.84821173051247    5.37732607994231
H         2.14068266373776    7.37485476634248    5.67565181845933
H         3.84661111896999    7.52306722649439    6.06731749537470
H         3.33661319841130    7.50240950679291    4.37983632182786
C         1.85171400955820   10.22717736763208   -1.14072020647559
H         0.89276034318996   10.74058508263931   -1.08368088386455
H         1.69028034015826    9.15153957237209   -1.03534129396496
C         2.62347770441323   10.54646679047932   -2.44043577877119
H         2.23509727694889   11.44408302129607   -2.91793850951650
H         2.53229603988249    9.72749611637068   -3.14904702080853
C         4.08731117854092   10.74569897508527   -1.99553688496183
H         4.36599097302496   11.80042983035885   -2.01828384700903
H         4.78579268278432   10.19861906757103   -2.62217547643347
C         4.07481084173569   10.22599508112842   -0.55907613399239
H         4.06761806301551    9.12802271229396   -0.56606155279139
C         5.13162363216972   10.71381878377526    0.42289804245565
H         5.19783047877009   11.80278741426110    0.41226220596375
H         6.11682450172276   10.30946590776606    0.16747702905816
C         5.46246004224496   10.71865251637470    2.87993533690744
C         5.46875110355773   12.07017259254318    3.23928236310160
C         6.18393304330093   12.46209228154382    4.36381818444625
H         6.18657053386985   13.50698953304199    4.63723803695835
C         6.88939327239663   11.55608397557390    5.13926128072550
C         6.87363054923474   10.21842151955673    4.76181471928168
H         7.42378958566132    9.50068316029720    5.35154345259917
C         6.17991091528624    9.78389243367641    3.64557458395749
C         6.22499152531983    8.33371309383317    3.26142254908967
H         6.74796962186494    8.19749407650361    2.31409519310192
H         5.22894886227693    7.89987505710720    3.17199265271792
H         6.76339362263642    7.76824998768819    4.01632209850506
C         4.72858180560928   13.12598649306277    2.46832056434271
H         5.38437757461285   13.58535082396122    1.72804399663210
H         4.40557090304302   13.91731351558331    3.14113747470436
H         3.85203212144119   12.71733399131350    1.96560268185855
C         7.66186816654668   11.99501644632812    6.34016531046775
H         7.47695883847980   11.33010971214206    7.18120496893312
H         7.40141725292591   13.01009347185517    6.62651254651354
H         8.72938621697766   11.96366811308450    6.12435577897692

