41
CSD_code = LOVBOP | q = 0 | S = 0 | Stoichiometry = C20H16N2O2Pt | MND = 4
Pt        3.43116068286710    7.78474829778036   16.66757959648447
O         1.80153294827386    7.19277122625170   17.70610599945225
N         4.32312415475459    6.36066846994507   17.83287188195781
C         6.62187013975501    6.57213652894098   17.01600050269187
H         6.35528290436863    6.44673628674232   15.96866955336505
H         7.59436238259605    6.12364294059474   17.19870143930786
H         6.67732027170372    7.64401432272839   17.19481424088215
C         5.58529620418689    5.95603062335234   17.89062983300272
C         5.98018472847160    4.93544048472818   18.77970684278684
H         7.01797350326100    4.63944390041230   18.78897441788410
C         5.08127810275530    4.33131274671628   19.61100431050081
H         5.38421001287608    3.54901100413514   20.29158049241269
C         3.73500255204216    4.74270373364355   19.57517822829082
C         3.40891531035028    5.77120213308706   18.65753406879174
C         2.06825301394821    6.24823100321391   18.55770574098336
C         1.10054669286572    5.67876775556519   19.38183819893628
H         0.08522516224773    6.03660289561547   19.31140731084896
C         1.43618712584056    4.66877157831989   20.27768826361558
H         0.66122930764776    4.24834317056696   20.90214710412475
C         2.72304841368127    4.19902738616533   20.38371354083738
H         2.97514789602450    3.41523224053048   21.08105982745358
O         5.06070916538861    8.37641914100140   15.62876046881296
N         2.53910653807608    9.20851132981688   15.50197903181514
C         0.24036421708891    8.99705386833092   16.31886192132159
H         0.50695114144526    9.12247399605188   17.36619027852678
H        -0.73213028321288    9.44553841584716   16.13615337322360
H         0.18492144234711    7.92517311100655   16.14006615920738
C         1.27693497484188    9.61314924213774   15.44422044635973
C         0.88204693875432   10.63373847313316   14.55514332448706
H        -0.15574293228318   10.92973077967578   14.54587062123440
C         1.78095637628046   11.23787020595964   13.72385197494773
H         1.47802261915032   12.02016835979435   13.04327085924521
C         3.12723501288379   10.82649088541534   13.75969093186638
C         3.45332202009048    9.79799086030541   14.67733386736081
C         4.79398717302031    9.32096600480815   14.77716764952326
C         5.76169540464399    9.89043809390150   13.95304260654201
H         6.77701812404257    9.53260728775573   14.02347765653194
C         5.42605416725675   10.90043521902873   13.05719412656651
H         6.20101283367676   11.32086715153965   12.43273836448461
C         4.13919126994290   11.37017279135585   12.95116187748367
H         3.88709228604757   12.15396605409856   12.25381306584812

