54
CSD_code = LOVJEL | q = 1 | S = 0 | Stoichiometry = C16H32ClN4Zn(1+) | MND = 5
Zn        4.93082074240089    8.89707706389224   16.52685212115079
Cl        3.40181788850720   10.42607781171932   16.52685348998544
N         3.55125113710035    7.23552082071377   16.24845255583497
N         5.43782185370794    8.38972697633095   14.49435309181757
C         3.62329763667937    5.84404517357960   16.71439979225248
C         2.53900041774182    5.12362880231604   15.91372648178081
C         2.59808807213489    5.80909599051113   14.54182637047031
C         3.33251940406798    7.14481408553781   14.79181251289554
C         4.68449186434901    7.19374457982413   14.06422007357092
C         4.50172902616472    7.31779158393448   12.53499847780300
C         5.09853635915185    8.68313471751552   12.17048169919275
C         5.10554926680731    9.42819482309271   13.50195793438399
H         2.69907658341311    7.63378281449164   16.64287817417014
H         6.42631052484889    8.18081172093335   14.37049483527096
H         4.61001208263451    5.44014452051054   16.47744116266171
H         3.46720901720544    5.78490642364712   17.79080268671318
H         2.71334601110565    4.05293919365581   15.85007343608314
H         1.56663772876163    5.28320203415746   16.37995637394526
H         3.15133679930435    5.20053140447449   13.82831486442860
H         1.60129466872512    5.97158066448443   14.13864257394945
H         2.74152751145104    8.00667970380056   14.47543041505733
H         5.25670488313876    6.30300475190264   14.33629723125104
H         5.00255399811012    6.51072404537400   12.00468226445885
H         3.44453036069671    7.28015080264556   12.27903760722202
H         6.11784916318213    8.57034404636586   11.79857306423589
H         4.51635260511496    9.19941511710254   11.41248608278562
H         5.82934650751072   10.24104433490307   13.53742195997789
H         4.11865396755908    9.83095362718081   13.73284290958559
N         6.59237535160562   10.27664873519165   16.80525174062023
C         7.98385057661763   10.20460543974096   16.33930270257586
C         8.70426550479725   11.28890326689377   17.13997637367310
C         8.01880165016136   11.22981003014862   18.51187783468970
C         6.68308344839405   10.49537866826702   18.26189201122876
H         6.19411144712876   11.12882315790772   16.41082776852879
C         6.63415420123528    9.14340530697465   18.98948282436812
N         5.43817171277753    8.39007521659954   18.55935032439097
C         4.39970458451707    8.72234689956021   19.55174651546679
C         5.14476586383292    8.72935924194418   20.88322214615641
C         6.51010895669306    9.32616635339483   20.51870475163404
H         7.52489392715496    8.57119300264873   18.71740388728523
H         7.31717681303681    8.82534027655828   21.04901949839126
H         6.54775064738965   10.38336468571078   20.77466693210878
H         5.25755651333819    7.71004632279770   21.25513043886065
H         4.62848619562233    9.31154291610537   21.64121827687978
H         3.58685526753312    7.99854939564989   19.51628274225390
H         3.99694516909521    9.70924216426974   19.32086243814317
H         5.64708739949522    7.40158654810806   18.68320791520701
H         5.82121796918372   11.08636992404231   18.57827568286038
H         8.62736833792603   10.67655863371778   19.22538547894674
H         7.85631750552419   12.22660168863745   18.91506611615047
H         9.77495588479531   11.11456119790275   17.20362647325212
H         8.54468772466434   12.26126644011781   16.67374900396602
H         8.38775349873648    9.21789159874955   16.57625997997918
H         8.04298776717456   10.36069525377034   15.26289989944563

