61
CSD_code = LOVJAH | q = 0 | S = 0 | Stoichiometry = C24H32Cl2N2Zn | MND = 4
Zn        0.64453646598848    5.85307732909252   11.95273627230094
Cl       -1.42831057308772    5.76936701146031   12.74582180791721
Cl        2.11853599235096    4.53241373594497   12.96171423904138
N         0.95628710095111    7.99188336685306   11.52163322979869
N         1.17048789456815    5.69252619362770    9.82109160509672
C        -0.38289213940506    8.56697219709035   11.30715743035676
C        -0.20163310717560    9.76017245737904   10.35617880279562
C         1.15521885607976    9.51019152080910    9.68363909412218
C         1.58982920774240    8.12759859324679   10.20214369116352
C         1.13558790461664    7.03266976035043    9.21858766153653
C         2.11069109176830    6.96408940459018    8.03018104156260
C         3.14673601543641    5.91266519007254    8.45108915142815
C         2.60156025951176    5.34623384766545    9.77216235377481
C         1.66709441985607    8.77572201943940   12.57507390713234
C         1.26801692291248    8.27200515864393   13.96074193591109
C         3.17230436794615    8.75257907507644   12.43204834904905
C         3.84757634699229    9.93560355735898   12.15069320124728
C         5.22564570466135    9.95521294301554   12.02655548098917
C         5.95118565180806    8.78674868308422   12.18031487409901
C         5.28990528088115    7.60534128336006   12.47014513242782
C         3.91245351756591    7.58700704510194   12.60192094535864
C         0.39719850837762    4.69089028012087    9.02804923391682
C         0.07580828470979    3.47494876062634    9.89498244775210
C        -0.87470986678239    5.24308363628823    8.42568114657319
C        -1.00557640562686    5.29394952100474    7.04205379596431
C        -2.16193357918947    5.77667789374255    6.45468818568470
C        -3.20661304785281    6.22081098193300    7.24632809514636
C        -3.09024861667105    6.16620570614270    8.62503433900294
C        -1.93748012221874    5.67532224213028    9.21247266440634
H        -1.01973299035106    7.81070404845310   10.85060557458239
H        -0.83874958942436    8.84251363661439   12.25543816138689
H        -1.01218412768883    9.79512447140690    9.63089856255350
H        -0.20478499775193   10.70558462981825   10.89763729183334
H         1.07929231928941    9.52329208962258    8.59821148562744
H         1.88660320363498   10.26317742529240    9.97627319142294
H         2.67304288365878    8.06261471620610   10.31663961935864
H         0.11729259299349    7.25469380409210    8.89538779260378
H         1.57748919885812    6.65663870918484    7.13093390806605
H         2.56912766232271    7.93081677199091    7.83245732496061
H         3.24875847788930    5.13483439075829    7.69500487562027
H         4.13053552085932    6.35313031808159    8.60297424241570
H         2.73857007923186    4.27135178862749    9.86403165956948
H         3.10367607187491    5.80908505721702   10.62036272880446
H         1.34945957340865    9.82367997691161   12.48724948888394
H         1.58106257923646    7.23914419037413   14.10352004051552
H         1.75177749684933    8.88183527870363   14.72088383808410
H         0.19207402237763    8.32781482947495   14.10762703245614
H         3.29193941508812   10.85681336809951   12.03595037463329
H         5.73176891505205   10.88477226021238   11.81093444298544
H         7.02645807840712    8.79929484847155   12.08218546507437
H         5.84601143545164    6.68948665479795   12.60254306455226
H         3.42068028696307    6.65700842768042   12.84094299506534
H         1.03191908969872    4.35880094675321    8.19526258312128
H        -0.58420580828493    3.74799222802075   10.71655295601153
H        -0.42664812240352    2.72202088891561    9.29133524285573
H         0.97968763779742    3.03637409184410   10.31109615065333
H        -0.19850222889338    4.94228514047659    6.41300791970851
H        -2.24585008858734    5.80412589524660    5.37805257149125
H        -4.10910052706941    6.59999238405835    6.79034024250898
H        -3.90277482274337    6.50045410425738    9.25256276854271
H        -1.87405557445914    5.62937323308320   10.28867628849440

