74
CSD_code = LOVKOW | q = 0 | S = 0 | Stoichiometry = C27H37O5PSi3W | MND = 6
W         3.28923504467093   11.86334609724249    8.51688979201525
P         3.11923946483387    9.88165650470896    6.98824894581055
Si        4.31260482876425    8.23143521194595    6.02239476626715
Si        3.25164160086992    6.13383881615171    5.71620886939545
Si        6.59331974358723    8.43377828197790    6.63464884815244
O         1.01733336292388   13.32184950241165    6.91308340826663
O         5.56676598724752   13.38666320520796    6.98190005313493
O         5.27156782084307   10.28775640469735   10.37478512804024
O         0.97652878876288   10.63650381008703   10.25002248620269
O         3.35132180684737   14.27035279856105   10.50881590169302
C         3.46871440066422    9.77092666591430    5.16108765817016
C         2.35880212526992    9.57155248294892    4.15303744390280
H         1.62596812006068    8.85366524056885    4.53611394412974
C         2.97823157123808    9.03547660693929    2.86026929087627
H         3.47155064407620    8.08014833150242    3.05911091366628
H         2.19675248444053    8.86617590281571    2.11568951182243
C         3.99366461081745   10.04434272058320    2.32356939446560
H         4.44613585901206    9.65170033450694    1.40563192925303
C         5.08482369293712   10.28515970099493    3.36637366040522
H         5.80863530579598   11.00848394523813    2.98452602627940
H         5.61241680296206    9.35036091854945    3.57291479140411
C         4.44732288120823   10.81319883512169    4.65252351347831
H         5.22279976379272   10.98958242031016    5.40625816224860
C         3.73829380582898   12.13404175894649    4.35415592393848
H         3.28275626376432   12.51938726785361    5.27138911977806
H         4.46385542331663   12.87237026679767    4.00490590660715
C         2.65937111541643   11.90562494413036    3.30079284663646
H         2.14798108178267   12.85103659436739    3.08826377631553
C         1.65674430479427   10.89955714528146    3.85541007005708
H         0.84490183056117   10.73535302782552    3.14228799084344
H         1.22696236242465   11.30843778559699    4.77233212774915
C         3.28651596565914   11.36402496070357    2.01803617042102
H         2.51273659321837   11.20775366874640    1.26277194078969
H         4.00155640568676   12.08714780560685    1.61963787379780
C         1.54243151208532    9.04824534427988    7.35607174147150
C         1.60076539526472    8.05343645049474    8.33265057241171
H         2.56596404005039    7.78504840412338    8.74553014405080
C         0.45131311404979    7.43495083648273    8.78249022951599
H         0.50979793423910    6.67103535916542    9.54453164576313
C        -0.77933260609895    7.80084293990563    8.26066308605462
H        -1.68061518304658    7.31768647473403    8.60726045883119
C        -0.85090128348404    8.80329926385927    7.30843421546008
H        -1.81039961117669    9.10711719409353    6.91549554940023
C         0.29920649813562    9.43470105034611    6.86789626293763
H         0.22128320003493   10.23832103244852    6.15208438878502
C         3.31507746649506    5.11541913367024    7.33157568096439
H         2.49959203290385    5.36916621077537    8.00001760766608
H         4.24433972412784    5.27637751965800    7.86872543763548
H         3.24379371125404    4.05219511028419    7.12011976010221
C         1.44921188190615    6.09045942829843    5.07585741093771
H         1.06940069619544    5.07174354315470    5.06125225935607
H         1.36891154431765    6.48269058938634    4.06680845642340
H         0.79156455748744    6.67327267159686    5.71413407765460
C         4.37202230826784    5.23123079546081    4.45451110164653
H         3.98840198378546    4.24166798542734    4.22548265133820
H         5.37424640462369    5.10459632454802    4.85244884432525
H         4.45891262511245    5.76947708572190    3.51606303675210
C         7.70544239059976    7.78563250010614    5.22279734012722
H         7.74045095419747    8.46844512040060    4.38021450261415
H         7.35348910362092    6.82711586692673    4.85486655695221
H         8.72533388337090    7.64589614891380    5.56784330478947
C         7.20424777502426   10.16472490437744    7.16588439618156
H         6.45068108211423   10.67250475497041    7.76479556592791
H         7.42862764846678   10.79837074194134    6.31262834685582
H         8.10667412908729   10.09684621191621    7.76851020332547
C         6.78947332424861    7.25101541465747    8.12155458958827
H         7.81134519028012    7.24123377970681    8.48913112620668
H         6.53500294864386    6.23117205171040    7.84848975606539
H         6.15047783634942    7.54262089585316    8.94935723455622
C         1.87977811588789   12.79958986781229    7.45431594636709
C         4.74648148679728   12.77462781088549    7.49498655422835
C         4.59317150122250   10.87294036903070    9.66100682449799
C         1.81990537472902   11.04643809487971    9.59612908384036
C         3.33927744354377   13.38965475323721    9.77699586261434

