76
CSD_code = LOVKUC | q = 0 | S = 0 | Stoichiometry = C33H33O8PW | MND = 6
W         3.41280659666278    5.96899227326542    1.60577989932624
P         4.40701765846137    7.89269593096617    2.71057607412357
O         4.51742544852366    9.83368919321910    6.70651237766526
O         5.25612166171245   11.69315635390453    5.68838328336488
O         4.48542797376575   12.69437652524210    2.27871206551767
O         2.61239425353749    4.93316649313547    4.45963560713794
O         6.17507295688101    4.49630690896759    1.85537550434456
O         4.24077390963091    7.24413298067830   -1.14054204449143
O         0.56562405903168    7.26175019039433    1.35888465623298
O         2.19312292379630    3.45011809262663    0.20334171073972
C         3.60821287243054    8.70071662637389    4.18340572622142
C         2.32865378275881    9.12853984340528    3.46666807701027
C         2.62719952257083    9.64853004951666    2.27008288707608
C         4.13820202718098    9.62945007446796    2.05493506311637
C         1.01818474301983    8.98422006417372    4.15386021582426
C         1.75492318805327   10.26293622467883    1.23371243720570
C         4.45441111394471    9.94429097141464    4.34859375225269
C         4.75290600588202   10.47466406282549    3.14622824210212
C         4.73834220336218   10.45227535614154    5.69095879602699
C         5.52988038274539   12.24308866303664    6.96813261142320
C         5.37669677062754   11.76462329454840    2.80546238789087
C         6.67886287610422   12.03970511204669    2.86921448882562
C         7.25319017361356   13.36890669193557    2.47505933458888
C         8.03626466011177   13.93406713931839    3.66408696775631
C         9.14270045684743   12.95671656203217    4.05652635949396
C         8.52112470051929   11.61973610145513    4.45518427140626
C         7.73012770862558   11.05256166891582    3.27369379340116
C         8.67639386056592   10.84401562696317    2.08598282184119
C         9.30179636456296   12.18075331325933    1.69052873988309
C        10.08652076779142   12.74826711450126    2.87283038738220
C         8.20135060587435   13.16151797034314    1.29031184839783
C         3.44557176169193   13.07539925518963    3.15455644548407
C         6.16825322471677    7.73667966112109    3.08868511222347
C         6.64833528611353    7.60557872790188    4.38724678946435
C         7.99967178390491    7.39104764988765    4.59708700689165
C         8.86634936994470    7.29858933800253    3.52067657830206
C         8.38746085411073    7.41662350381600    2.22452047856946
C         7.04023382712199    7.62858915231039    2.00758960743991
C         2.90324784704320    5.27931359110766    3.41222736450049
C         5.17700222853376    5.03991765312275    1.75764221907959
C         3.93546525273849    6.75150570176054   -0.15617053436725
C         1.62368377791726    6.84820856586441    1.46461029549162
C         2.63637859720442    4.37020150603453    0.71412521962660
H         3.45289767969200    8.12764475828854    5.09545544408496
H         4.46082123906668    9.87217371368701    1.04387860831768
H         0.84712453654256    7.93930393781374    4.41416268968700
H         1.01888766153661    9.55947568478749    5.08034340955689
H         0.19991588522556    9.32519356273792    3.52538787243645
H         2.06384669491208   11.29200056073443    1.04975245943276
H         1.84986376130674    9.71643417136929    0.29463299259183
H         0.71177969947764   10.25373115636544    1.53789705647920
H         5.95860328384143   13.22659822780563    6.79232008104999
H         4.61027925863859   12.32595825099798    7.55172525612764
H         6.23216331388085   11.60943358310150    7.51433233308699
H         6.44936648773139   14.05333902398480    2.19209946225206
H         8.46716907249231   14.90082528011164    3.39363046062926
H         7.35918042131272   14.08858141110928    4.50712625461617
H         9.70559697427326   13.36451409277510    4.90438413866354
H         7.85293001507020   11.75660178245308    5.30591286155827
H         9.30066960283378   10.91118239449997    4.74508345843364
H         7.27393865690259   10.10096813205419    3.55707462458341
H         8.11986762511858   10.42582018423247    1.24434975925805
H         9.45526956831461   10.12996442715947    2.36230457532788
H         9.97957313079729   12.02750975498868    0.84281751470778
H        10.54623301221230   13.69854397430653    2.59168666547118
H        10.88671836547697   12.05934926728445    3.15320731101257
H         8.63933674247759   14.11835515268233    0.99725750065723
H         7.64131119077115   12.77044979466020    0.43837890285399
H         2.81828513767923   12.22468187060688    3.44083290885655
H         2.84618158521741   13.80395608691324    2.61074235125570
H         3.84976703158427   13.53647641514561    4.06132638458564
H         5.96887261753177    7.67198482382541    5.22525060884421
H         8.37593139323540    7.29042501489453    5.60441636217520
H         9.91861249062110    7.12487768004280    3.69090976130789
H         9.06453386155002    7.33481371603080    1.38717833386994
H         6.64478596241499    7.70931033275436    1.00132667043171

