41
CSD_code = LOVSEW | q = 1 | S = 0 | Stoichiometry = C14H22NO2RuS(1+) | MND = 9
C         4.34559094103136    6.77883299744971    8.44463470403011
C         4.08026028764825    8.04803381211262    7.53127117582117
H         3.53956110561250    8.81173891497313    8.10469784270309
C         3.25238262495151    7.60244171730419    6.32900872271966
H         3.01682921550241    8.44045261465062    5.66904949620118
H         2.32922099033714    7.12048584408640    6.64868477727958
C         3.60278325937282    4.82207092971584    5.91190690514324
H         3.81711424510185    4.70147868164139    6.97083704421572
H         4.10843046255816    4.05202165461946    5.33596895917597
H         2.53376943376926    4.77674203085339    5.72225080276371
C         8.46314897799633    6.11698618270644    7.11899809804295
C         7.87724282733859    5.05883667264856    6.36484793111831
H         7.82900627102088    4.06639589175505    6.80060455071680
C         7.45838033306125    5.25715820034420    5.04192479549816
H         7.10898936789375    4.41343272090604    4.45420904406051
C         7.58933986785550    6.52925694530065    4.41140345795687
C         8.10991696410485    7.58878705261833    5.17458400612936
H         8.27889654115320    8.55145781985355    4.70323825415248
C         8.55013261680531    7.38108910222212    6.51024876388685
H         9.03616323606295    8.19704239709453    7.03348457959985
C         8.99969879061180    5.87112256211640    8.50501443759974
H         8.74551500183420    4.84677003291134    8.79369269600100
C        10.52613175736094    6.01076835576635    8.50124494486020
H        10.82736026870080    7.02712807889830    8.25950509208428
H        10.97363136852398    5.33467735480459    7.77649646954171
H        10.91463631063475    5.76442377245943    9.48505390879117
C         8.35702216674996    6.81889798817072    9.52137573749411
H         8.67977142321432    6.55255074772690   10.52347251688636
H         7.27199083129169    6.72779768385515    9.47918823942982
H         8.64358422336709    7.85234225140546    9.33892018507000
C         7.25565087592962    6.69510151233725    2.96295926107204
H         7.12554270934554    7.74238056505035    2.70262477541864
H         6.35135475348736    6.14953598787516    2.70059752969519
H         8.07254010559865    6.29504514325296    2.36062650660966
N         5.40050757212817    8.51380300447190    7.06460864747860
H         5.91562419654848    8.89994828520889    7.86265127401074
H         5.29131872517607    9.26950166036151    6.38040435838514
O         5.36905552864034    6.11577312250203    8.06885961334639
O         3.59538249813675    6.51649562444313    9.34654772220646
S         4.21405510098888    6.41614195977783    5.30746648527334
Ru        6.35256622255489    6.73005212372433    6.35553568752964

