44
CSD_code = LOVSIA | q = 1 | S = 0 | Stoichiometry = C15H24NO2RuS(1+) | MND = 9
C         1.88102427675726    0.43392653648114    5.55009827144706
C         1.52636490525858    0.22261034445165    7.07859050090202
H         2.25334196516207   -0.47660675418517    7.50710011008632
C         1.63459828340924    1.56351192654712    7.81149625926796
H         2.69402927988876    1.75166199543884    7.99765114872875
H         1.13618767386770    1.50177759260238    8.78379473590680
C         1.11250808810740    2.75977980711119    7.02125779431616
H         1.65050131613542    2.86388594078604    6.07764817031839
H         1.23402412063531    3.67841160943834    7.59579952286797
C        -1.43938486611328    2.70346962066432    8.18118005222686
H        -1.22572082822037    1.80213465137912    8.74667585746071
H        -2.50796928002560    2.79043968911551    8.01114840782143
H        -1.08935174158087    3.58063010658624    8.71800648808930
C        -2.22612995203378    0.82310863160616    3.63589273998495
C        -3.03038299893724    1.23410443013245    4.72243861279575
H        -3.48676807728444    2.21975677242183    4.69724710919153
C        -3.35616490799640    0.35454116718312    5.78255136053367
H        -4.07321490749522    0.66025365448405    6.53682226113307
C        -2.84826947780594   -0.95801437450727    5.79711215719111
C        -2.00929828034081   -1.36835513416947    4.72118505413587
H        -1.67409188435078   -2.39988304624412    4.67566726861807
C        -1.72490034728036   -0.50113785784594    3.65648510168577
H        -1.13199677020536   -0.86532521405115    2.82751319271544
C        -1.94693785668545    1.79072180300966    2.51006161587108
H        -2.88343793303411    2.31549413960593    2.28434345710816
C        -0.91627458264793    2.81969419092938    2.99641822991558
H        -0.01391125084017    2.30681573308604    3.33048335158279
H        -1.31300667337229    3.41797892459965    3.81536727970018
H        -0.65008311931882    3.48780045556508    2.18269220437576
C        -1.44788589818109    1.11585204573633    1.23497797233067
H        -1.40017597901138    1.85126235018503    0.43661428321174
H        -2.11964662615950    0.32057955482538    0.91934194225217
H        -0.44758838245550    0.71352803132060    1.37502413487373
C        -3.27593595671583   -1.93869451753752    6.84404462052603
H        -4.17079264951298   -2.45616784219426    6.49397901896309
H        -3.52634897073929   -1.44347382732319    7.77974224540119
H        -2.51365307977886   -2.69315411081136    7.02716219235604
N         0.15905060325068   -0.33725707540156    7.14528871997214
H        -0.18580480945616   -0.29574375583164    8.10884357229629
H         0.21566386984610   -1.33039550909904    6.89842984233957
O         0.85677442564300    0.59643984618392    4.80977255258799
O         3.03224368635018    0.46025945425176    5.20221164772086
S        -0.64314212160336    2.68241792442187    6.54247179842195
Ru       -1.05404228512523    0.52756008896625    5.59256714078651

