133
CSD_code = LOWGOV | q = 1 | S = 0 | Stoichiometry = C54H72AuClN4P(1+) | MND = 2
C        12.31696373420989    2.00948985330584   16.29809703755771
C        11.37361153196049    0.85969701263184   14.66005404472542
H        10.75501218349409    0.10574234611554   14.21917168857406
C        12.09211649111444    1.85438386090751   14.09552596715135
H        12.23806275355637    2.11474047865557   13.06802850172826
C        10.64125413200662    0.24360905211826   16.89757764715126
C         9.36924012005511    0.79014973008138   17.11140312506365
C         8.47018904374574    0.05677436164668   17.87761605313501
H         7.47994325090366    0.44522756179029   18.05247284012584
C         8.82315960092008   -1.17144418825331   18.40130465938953
H         8.10495737510642   -1.73331384849955   18.97864523409603
C        10.08638185551282   -1.68807697773755   18.18067657973860
H        10.33632501872799   -2.65436422370980   18.58408744174318
C        11.02364367078570   -0.98949358271319   17.43031366098458
C         8.95053780413218    2.11936871648247   16.52787005403530
H         9.82367380991645    2.62098733207207   16.09996768764148
C         8.38318238904358    3.05900723355914   17.59257869953423
H         7.48013034122878    2.65781989945994   18.04287023929218
H         8.13687871885296    4.01618212767635   17.14123457792655
H         9.11593865007208    3.24639428893699   18.37474846303581
C         7.93170244206073    1.89425578705923   15.40702615728258
H         8.34525098569475    1.25931834936049   14.62577164523483
H         7.65246221102402    2.84674344977645   14.96434258763512
H         7.03394318814323    1.41996292704451   15.79403456609310
C        12.40212610938471   -1.55086136237507   17.16880944763773
H        13.10747750036430   -0.71114539232523   17.11608001805170
C        12.86601315711016   -2.50001280066827   18.27322757113831
H        12.74042830357669   -2.05200467740547   19.25650131577103
H        13.91688208520415   -2.73896984595834   18.13434006430623
H        12.31383831039161   -3.43533560819008   18.24148598725488
C        12.42497723311795   -2.29100932368356   15.82641074400372
H        11.66990199967929   -3.07363179111188   15.81730596713076
H        13.39840943349722   -2.75035399869231   15.67360717968967
H        12.23480145042816   -1.61735707816122   14.99542946704335
C        13.32392798143802    3.82502097567481   14.99150900919120
C        12.53741255153104    4.94622165134408   14.68956838614248
C        13.16763607622609    6.18293951904741   14.63923685494917
H        12.58839273461986    7.06297690675440   14.41304833800863
C        14.52458653360114    6.30170014565777   14.86513484602487
H        14.99317390315941    7.27273381602929   14.82512913581204
C        15.28791527594366    5.17771557132845   15.11178794069320
H        16.35263085733962    5.28066590611928   15.24107733740472
C        14.70625830909395    3.91815356002371   15.18151638893358
C        11.07042817732253    4.85083636125407   14.33845747934982
H        10.70185904097652    3.84408642224970   14.55966548012905
C        10.21043572226033    5.83972989637092   15.12599444546824
H        10.43692401793068    6.86670923292217   14.85669785000822
H        10.36665348475840    5.72638444676140   16.19733903738464
H         9.15948497366151    5.66184798614913   14.91036127361893
C        10.90220110290687    5.08845584482267   12.83294708497515
H        11.21407069150336    6.09516890590208   12.56907228736097
H         9.85911899236412    4.96737570859460   12.55177238771667
H        11.49976079149613    4.38677496056199   12.25443603673939
C        15.57314411222186    2.69228613525172   15.34433745433327
H        14.94234566400060    1.83910754931240   15.62268009653786
C        16.62561011295955    2.87278621835701   16.43712364191563
H        17.35253746870879    3.63177025800062   16.16548578911346
H        17.16238608837891    1.94064678613890   16.59154287066920
H        16.15410745674781    3.16182345034070   17.37524816266869
C        16.23514100844914    2.37297356769460   14.00021614280575
H        15.48552710231869    2.20055384732254   13.23051238810529
H        16.85174159929981    1.48188437734629   14.08785007624160
H        16.86558712582275    3.19954899829676   13.68304230088112
C        12.76451564712060    1.51032823077690   21.36801659117239
H        13.18835330069436    1.46781470403244   22.35100028068507
C        12.54591947108584    1.83083935068567   19.19736079851277
C        11.35157034144928    1.38874474565767   19.71115287690631
H        10.40911803657825    1.21225644142470   19.23873140152231
C        14.77499746696133    2.30872364144060   20.21469785018206
C        15.09688012786607    3.62283642100879   20.56737772119289
C        16.43843253414676    3.98477436428850   20.55214824072862
H        16.71670174752769    4.99052377661681   20.82045550742654
C        17.41839474565692    3.07396929369752   20.21043726528637
H        18.45507489277857    3.37249392006864   20.21421432594119
C        17.07615507118472    1.77984123246619   19.86844623821124
H        17.85279628304607    1.07659109646560   19.61565716710231
C        15.74924554375219    1.37197874779162   19.85658522799925
C        14.05390266970593    4.62870791856681   20.98925097666923
H        13.05605655175856    4.24855131157418   20.73912221576720
C        14.23138471453687    5.96051887817880   20.25584963265300
H        15.07991513350199    6.51695350194403   20.64324541494336
H        13.33952599665973    6.56790751260888   20.38344715257626
H        14.37935029196571    5.79436167911245   19.18944074765299
C        14.12550099729103    4.84525737310002   22.50342509045108
H        13.96019213625553    3.91469354949778   23.04436791724394
H        13.36967242404497    5.56385621753135   22.80809374840092
H        15.10176415641046    5.23089775239147   22.78571366780422
C        15.39629105484452   -0.05373988035008   19.50579112670781
H        14.30972942024184   -0.14228904696044   19.40196881368876
C        16.01742995186804   -0.46069659538601   18.16929332167575
H        15.66914090274629    0.20181669291582   17.38039992454323
H        15.73367879047637   -1.47938595967601   17.91918458600307
H        17.10155740581785   -0.41771118037589   18.20619166619735
C        15.84530644966871   -0.99044130478599   20.63071982384588
H        16.92402947388127   -0.95264251150234   20.75336495792250
H        15.56157686833808   -2.01482231570327   20.40231371508907
H        15.38508966681871   -0.70740699702061   21.57556629834034
C        10.46735630810323    0.88110455650781   21.96838944174335
C         9.54419028314922    1.88460568554301   22.28177719223731
C         8.55808992137804    1.57494385778944   23.20986044751979
H         7.83786193454234    2.32703281205846   23.48596727393260
C         8.49346499280931    0.32196579423060   23.78944196684302
H         7.72269758174400    0.10546158957260   24.51269142669388
C         9.40956983479406   -0.65544373050311   23.44998949050527
H         9.34508986150376   -1.62790731518664   23.90986895469527
C        10.41449776667072   -0.39604071532351   22.52706576670178
C         9.64041596724974    3.27434331614964   21.69884845383497
H        10.25400894346006    3.25594718566607   20.79172405046398
C         8.27840417012147    3.84428405304688   21.30204133318593
H         7.70841037931311    3.11934562755725   20.72532217399630
H         8.43360756666667    4.73048944919339   20.69211863275051
H         7.69759424957153    4.13168973998338   22.17350091208823
C        10.32989266358213    4.20204062161092   22.70428762228201
H         9.72971736280085    4.30290680455080   23.60500146471279
H        10.45520741870298    5.18359929422307   22.25531698605707
H        11.30861709425824    3.81639699796304   22.98537047047081
C        11.41721552693717   -1.46449435451030   22.15896293882324
H        11.99138853241483   -1.12821826680120   21.28713669711895
C        10.72042618990005   -2.77229468801215   21.77814719241518
H        10.27013502253473   -3.24430770438397   22.64613369832270
H        11.44307968078540   -3.46723260199797   21.35654534446320
H         9.94115032653936   -2.58652530083403   21.04281496744375
C        12.39217283181233   -1.69511067207035   23.31699722531987
H        12.91906213990424   -0.77834220370986   23.57492935482308
H        13.12552667557241   -2.44993788536236   23.04414344053095
H        11.85925699315648   -2.03698258210420   24.19995043711703
N        11.52208230258148    0.95056153771479   16.02602765124612
N        12.67506935150194    2.55967576215658   15.11011890137899
N        13.41055328901729    1.88808515473095   20.26964747404430
N        11.51431591513780    1.19990064179033   21.05086397296323
Cl       10.52320914911094    6.11601643605056   19.05080959793111
Au       11.92584115197108    4.54650919945725   18.12343370183328
P        13.18445451198108    2.65127066636274   17.71311360837502

