66
CSD_code = LOWVEY | q = 1 | S = 0 | Stoichiometry = C22H40NP2Pd(1+) | MND = 5
Pd        2.06680563698394    2.40017422626456    8.38359764179648
P         2.91479642101217    4.23801818231786    7.15445485808539
P         1.93319210185357    0.65857286151052    6.87164263904652
N         1.83215806037659    4.74357359505834   10.79844440974889
C         1.58233049558239    1.22056192982814   10.02644472593372
C         1.93401219804804    2.50308259907669   10.52819284771726
C         1.20031026811805    3.68137994120849   10.22337009541888
C         3.02207411804621    4.34100917210057   11.36621340667037
C         4.01059862291724    5.08795134559070   11.98788335830245
C         5.11742936561246    4.40889475898872   12.45981198574569
C         5.23944219812753    3.02713888952329   12.31531772543801
C         4.25879728079802    2.28020039045409   11.69463999587314
C         3.13925400596797    2.94410818358172   11.20203050221823
C        -0.20006951509305    3.79809752229533    9.70141545753024
C         4.58575097759037    3.61222882456490    6.68524699129569
C         5.24424337748375    2.97235490850767    7.90628028942723
C         3.31973417750759    5.75672902300068    8.13788010299504
C         4.17402288658175    6.81665906687053    7.45401468441366
C         2.29234496252070    4.93905313849017    5.56500780175174
C         0.99414024454111    5.71363118455279    5.76561618459394
C         3.49741609288880   -0.22949026896040    6.48863121762711
C         4.13501737493671   -0.75514001746362    7.77096363468568
C         0.75085324011434   -0.67196853477740    7.36908896225575
C         0.48157708922022   -1.75747324705539    6.33459378223729
C         1.30840710789484    1.21037473968186    5.23367726774547
C         0.02249066961687    2.00205361405789    5.44867252721430
H         1.50898496866475    5.69713628281108   10.76589533714606
H         2.21779908914213    0.38912610839331   10.32259878846917
H         0.52107306519748    0.97178437960644    9.99656825517807
H         3.91484790560853    6.15649096761900   12.10539711258364
H         5.90349176864688    4.95853412502183   12.95351836579342
H         6.11904412344248    2.53525392932418   12.69992294273866
H         4.36035576968052    1.21036818487481   11.58886822412670
H        -0.91415966655934    3.54378086342436   10.48799254735205
H        -0.40033357506193    4.81904342839489    9.37759476914735
H        -0.37024352183125    3.11389876998028    8.85269027136972
H         4.43617977875649    2.86255704760342    5.90174116636780
H         5.20519831375510    4.41080289205799    6.27226892889845
H         4.52635684593870    2.30133127730342    8.41253380051984
H         6.11723000713028    2.39069874994299    7.61921278102747
H         5.56292546916809    3.73000500867804    8.62026370785587
H         2.36358094843342    6.19660937006981    8.43821232587122
H         3.82174384428482    5.40921439278019    9.04681100312279
H         5.14381336118510    6.42258428789336    7.16327270714282
H         3.68342659190361    7.22229271109014    6.57349125820370
H         4.34666820577318    7.63833765069527    8.14629280747471
H         3.06618699246708    5.57532769167429    5.13050834029390
H         2.12467704148905    4.10482094040762    4.88089650894720
H         1.16824131891699    6.63452202200449    6.31686605349443
H         0.55566524165658    5.97521178239537    4.80570551343745
H         0.27127596311226    5.11321249007894    6.31865605971986
H         3.30056894573632   -1.03876990191437    5.78225143067103
H         4.16652278135866    0.48637108862057    6.00380995570347
H         3.56930268228428   -1.59268004558923    8.17259250649389
H         5.15142303304594   -1.09243894764156    7.58419646957145
H         4.16615693755971    0.03674157813432    8.52508974958586
H         1.15563873383561   -1.11843319221940    8.28169364501100
H        -0.18529877086556   -0.17369584752549    7.64231383336500
H        -0.16514791515178   -2.51539555977130    6.77119614512258
H        -0.02115209248576   -1.35973718822040    5.45725441468072
H         1.39956353193438   -2.24652644891764    6.01953546021462
H         2.08096782342735    1.84384085195133    4.78917952334415
H         1.15181905547694    0.35648106523865    4.57259664367086
H         0.16459793991023    2.70581930852936    6.28100683544098
H        -0.24984936698144    2.56529243270405    4.55966732607663
H        -0.80387262928475    1.33970942316599    5.69650338908913

