88
CSD_code = LOXLOZ | q = 0 | S = 0 | Stoichiometry = C46H36BrNOP2Pd | MND = 4
Br       16.64620842354308    6.96739574139217    4.34635298152645
C        14.52367232585237    8.79108544829763    2.29076936886691
C        13.25709915522547    9.10720683996448    2.76772408162698
C        13.02511911270307   10.31279712602782    3.39984431110284
C        14.04892588397827   11.23146627767329    3.54781398969695
C        15.32241143067068   10.95508130562290    3.07538635411732
C        15.55836301060263    9.72191279643100    2.46739546358342
C        16.48326340727990   11.93026198714907    3.12525164048170
C        17.72011155160192   11.11986656919053    3.46339172881466
C        17.85437902058413    9.88139255276698    2.83614118224545
C        19.00888073340374    9.10314290048016    3.00826562995403
C        20.00715920569755    9.57237242061602    3.85337040623264
C        19.86363980736057   10.78108698551991    4.50577938402897
C        18.73184546737188   11.55149371772198    4.30706378559460
C        16.24671635859320   13.08157569759368    4.09986830850772
C        16.67278667760274   12.51287330703302    1.70838459734148
C        20.40205462087047    6.54632426522959    3.11239417872588
C        19.96641309713057    5.47853233927340    3.88942092969867
C        20.87954745164249    4.72211631592360    4.60187838198472
C        22.22962747603976    5.02097193807061    4.53028989770278
C        22.67007162480851    6.06950618353229    3.73676963146260
C        21.76296469418107    6.83050023070213    3.02402299608097
C        13.51550349342494    6.07470057345477    2.04273807835101
C        13.81451179464853    5.08356055932067    2.97095402897178
C        12.82765676823310    4.21286311866723    3.39723006894214
C        11.54410422768457    4.32069642698781    2.88922710597318
C        11.24807772109911    5.29243845321537    1.94530233945199
C        12.22867233065434    6.16684822811901    1.51673953475692
C        20.07707329966214    7.90232011270685    0.65342503121968
C        20.56570217072897    6.83934476693598   -0.10399241802492
C        21.14723734407154    7.06887848566867   -1.33416045947487
C        21.24192147188483    8.36334591394684   -1.82278419182987
C        20.76317158352112    9.42337274264329   -1.07268090049976
C        20.17737610060791    9.19724415149249    0.16119166074847
C        14.40355951945260    7.48122431361860   -0.24181902690143
C        14.27093325983060    8.75420410411517   -0.78115004052596
C        14.06905132937835    8.90944639337216   -2.14210215870431
C        14.00771202974131    7.80173700932375   -2.96961659122041
C        14.13596865251028    6.52837204334232   -2.43526292984438
C        14.33514656932011    6.36921228110983   -1.07918132294878
C        17.35977084072420    6.59525953458008   -0.04458109124738
C        17.41707626186941    7.67672823507956   -0.91907194825024
C        17.64402264534973    7.48772135841735   -2.26600851491861
C        17.81920327141145    6.19415907137909   -2.76016422878551
C        17.76490622349716    5.10256244528852   -1.89268486030449
C        17.53666643512800    5.30891115455720   -0.54553009716159
C        18.05046966785539    5.99285181961355   -4.13631204424125
N        18.23792628588845    5.82996041657364   -5.25699002187407
O        16.83161373922611    9.40038020650181    2.04550623648696
P        14.85229411610377    7.17278531859207    1.49477727039092
P        19.16484811117690    7.48089822257608    2.17076146305350
Pd       17.03296846385273    6.83846285305963    1.90513342447695
H        12.45716341909792    8.39011757099895    2.66250452511853
H        12.04063403367519   10.54010051055696    3.77905400866891
H        13.84393304462500   12.16867937623245    4.03784346404092
H        20.88850810560989    8.97113348292956    4.01731150469806
H        20.63880932483171   11.12743346593320    5.17200679490225
H        18.64486376185393   12.49518769003303    4.81929450620619
H        15.36743649350574   13.64842424073076    3.80497797756069
H        17.09049291727104   13.76657217411792    4.08299960557746
H        16.10882647690552   12.70972388885921    5.11235085570138
H        16.84387140726695   11.72429634800246    0.97845018470385
H        17.52799665628202   13.18560676722047    1.69409320838780
H        15.78480260775537   13.06790259440716    1.41250909382168
H        18.90858252837246    5.24399710004925    3.93468114881362
H        20.53726369284807    3.89825704440975    5.20995623463800
H        22.94419377300447    4.43132429590394    5.08543343192280
H        23.72531004692967    6.29181165092544    3.67089091480833
H        22.10616775537910    7.63559514607630    2.38745514131911
H        14.82268232439704    4.99860001223519    3.36011468234588
H        13.06179495464473    3.44929848337519    4.12367482388634
H        10.77236495241464    3.64178961622687    3.22084796581718
H        10.24937122950229    5.36639517425553    1.53973444302530
H        12.00463498128251    6.91305329109390    0.76565463534875
H        20.47466588870166    5.83103326064951    0.28178702234737
H        21.51793337808325    6.24101100621158   -1.92034685167239
H        21.68571413049445    8.54236655120498   -2.79064001571626
H        20.83907303477382   10.43205577675088   -1.45259876415370
H        19.79732438341737   10.02682224682962    0.74275635396977
H        14.32609184044468    9.62194495226602   -0.13702050740092
H        13.96666720846389    9.90119770458357   -2.55859562357018
H        13.86428173493506    7.92758582658725   -4.03231485053741
H        14.09136369073344    5.66373869911414   -3.08090491376685
H        14.44974386601509    5.38001317794194   -0.65217835053918
H        17.28169078606064    8.68642841974255   -0.54217492614768
H        17.68772546571809    8.32917621798604   -2.94318405434865
H        17.90215020274430    4.10354393218346   -2.28318756609124
H        17.49586363667932    4.45122904292004    0.12469127087103

