45
CSD_code = LOXSOG | q = 0 | S = 0 | Stoichiometry = C19H20ClNO2STi | MND = 12
Ti       -0.07434761695919    3.26421829148444    7.25463522087573
S         0.06995192089312    0.91726630525834    8.50960658685241
Cl        0.88269659850670    4.74406354845194    8.60635804850032
O        -0.32622615787186    2.21815695456574    9.08003105531111
O        -0.75119425006147   -0.21846705192123    8.81080749944244
N         0.10036413436340    1.35118373174459    6.98473694018355
C         1.74935479601756    0.57942826496285    9.01422025971386
C         2.19787507063566   -0.72750947954811    9.06447682681245
H         1.49696680243675   -1.52812007121454    8.88643927437822
C         3.52679504555283   -0.97949557789155    9.36046238103392
H         3.88084342718480   -1.99882478212749    9.40367874324773
C         4.41017141979677    0.06694421776297    9.60379298419928
C         3.93378837980806    1.37549540718511    9.55518390251256
H         4.60816607490613    2.19532246866330    9.75343293714949
C         2.60814116916304    1.63805701224257    9.25824756126566
H         2.22797920839418    2.65348596780348    9.24350338747603
C         5.84326865749398   -0.20049838752903    9.94110389940157
H         6.49524297372217    0.51895286068686    9.45126676788108
H         6.13454828716927   -1.20445219153475    9.64458731838736
H         5.99246586142905   -0.10591069171630   11.01661033274427
C         0.47503637889974    0.44049886365661    5.93191244474744
H        -0.32580896273902    0.41578669322210    5.18003295664090
H         0.59296831298213   -0.56775581671172    6.34861952945420
C         1.77485189203972    0.93256850260515    5.26351900234390
H         2.61654429089814    0.72976683308051    5.93553834845418
H         1.93131676516554    0.39545093749913    4.32712060407332
C         1.65579376556537    2.40560135632976    5.02588162185555
C         1.37636521138192    3.06882673384150    3.86310967703988
H         1.21656003393759    2.62208534087562    2.89662515860338
C         1.36326813550934    4.47003305199191    4.12526639479283
H         1.18931040641179    5.22879277903642    3.38172239002054
C         1.61577918589588    4.67311790572460    5.45243009715370
H         1.76478971785391    5.62270951254975    5.94781773739939
C         1.75264546690681    3.37915452814362    6.10482492124554
H         2.53843315005173    3.24701382297091    6.85623655150828
C        -2.22712913650858    2.77509715312363    6.30148220070887
H        -2.57711273961236    1.80367403509710    5.97954512077122
C        -1.51328796102421    3.70156611028234    5.51142267027316
H        -1.26722911605244    3.58829510761298    4.46309062214554
C        -1.35950380923793    4.89182375074955    6.27369702202144
H        -0.98747237621936    5.84076455966931    5.90436292603109
C        -1.97666691947431    4.67930031092276    7.52845437109414
H        -2.09911239452972    5.42348698110359    8.30568132534425
C        -2.50357509938385    3.37525332643245    7.54321451958913
H        -3.08051600124348    2.93459082283326    8.34490985931487

