109
CSD_code = LOXTEX | q = 0 | S = 0 | Stoichiometry = C43H62OP2Pd | MND = 4
Pd       10.99234263185588    0.40335926231900   16.33752497182274
P        12.09847408950824    2.31032449766932   17.08720345330789
P        10.69047806701981    1.46274120626482   14.29517981255573
O        12.83630778385222   -1.69870550794459   16.58854796409983
C        10.04584140420575   -1.47995128912341   16.29837020063078
C        10.69484342966092   -1.30022525626420   17.53411034201793
C        12.14651475745191   -1.34440491366451   17.56055880649400
C        12.76821687892208   -0.97447224522780   18.85362636472593
C        14.09045158252717   -1.05901691621419   19.04283644988333
C         8.58735027604052   -1.44115179845018   16.18373664559640
C         7.90510412139655   -2.29129572187811   15.31240737802208
C         6.52760252727762   -2.23866439617399   15.20871420554352
C         5.80204695366708   -1.33543388462129   15.96866704436451
C         6.46618950870567   -0.47576366093226   16.83071278204750
C         7.84144654899820   -0.52622825021742   16.93562783267101
C        14.82375438925209   -0.68028198033515   20.23539125205804
C        16.16779968828536   -1.04606104529120   20.35532244557371
C        16.90926629627712   -0.67867901302768   21.46073180537506
C        16.32849278477068    0.07225548663174   22.47007057311549
C        14.99882797526733    0.44800179978771   22.36445946672033
C        14.25389199497523    0.07632923249260   21.26281735612048
C        12.22402090720298    3.48451197183233   15.64218791437097
C        11.21376964272132    3.23893115036246   14.51663155520703
C        10.97515027983052    3.20566262586942   18.27237374615708
C         9.59309495976182    3.27115369749649   17.62175359927195
C         8.51727641021887    3.75710274894278   18.58774180036299
C         8.47217358760405    2.88447651981636   19.83611830571006
C         9.83778233216661    2.88460064570111   20.51284617014682
C        10.90350448330988    2.37055081856715   19.55111147058022
C        13.78743180933434    2.45667540791344   17.85453672523038
C        14.78998178715255    1.68946471967281   16.99089522122009
C        16.14558884487127    1.62321982567986   17.68650680657445
C        16.65675884885861    3.03002451170033   17.98372639631975
C        15.64884287539497    3.79158330706141   18.83930969107883
C        14.29337510138283    3.86852181826391   18.13732053683857
C        11.91950890730689    0.72805927469309   13.11367690582911
C        13.17616212627393    0.35689994626026   13.90370570523628
C        14.13623015225459   -0.43578440070956   13.02422732903249
C        14.49341263196053    0.35963147621411   11.77065592767999
C        13.23401947753865    0.73972962694236   10.99584853881557
C        12.28552516141703    1.54876321165852   11.88015267096034
C         9.13086019744098    1.71092217277309   13.30492147400776
C         8.02751489472812    2.08571190158858   14.29799555650735
C         6.66907974636122    2.20022064409820   13.61544448150738
C         6.31125879564348    0.88996817049050   12.92503541401015
C         7.39144283768208    0.52649778360214   11.91377122659767
C         8.75369130881224    0.41297938491861   12.59267468161937
H        10.57822280256244   -2.06988928407131   15.54642638318411
H        10.14141186442339   -1.17873218362394   18.46372224113088
H        12.09979793290252   -0.64851681966033   19.63950039451128
H        14.68148438842660   -1.44276409341957   18.21944648260122
H         8.46560219319306   -2.99841308987140   14.71616848274288
H         6.01488150166383   -2.90465646429886   14.52896313349994
H         4.72590476778865   -1.29480188016401   15.88376787251813
H         5.90587930380426    0.24123003096242   17.41461236097316
H         8.36349057854420    0.16825531917355   17.59280601329899
H        16.62524753374250   -1.62797300630021   19.56766918546310
H        17.94591644480344   -0.97395452367496   21.53623568686050
H        16.90848379408259    0.36536217164569   23.33275701547868
H        14.54200848527979    1.03733855063245   23.14709359857994
H        13.22113881746083    0.38427750276119   21.19267920836218
H        12.13714523957882    4.51293597579488   16.00744922496711
H        13.23520468039544    3.35651260324994   15.24814103324225
H        11.60465108231061    3.62147895937692   13.56975746239145
H        10.29142373778606    3.78622110878242   14.72399891264730
H        11.34029746650634    4.21625569756468   18.48895042947176
H         9.62372816934545    3.94092894950074   16.76071999881698
H         9.34158470933054    2.25910457425657   17.25650295959190
H         8.73165307515244    4.78927313410275   18.87834438411803
H         7.54710846100886    3.74639997937926   18.08602324021369
H         7.70956944013979    3.25340470645601   20.52491422612829
H         8.20585715753317    1.86246728822549   19.55681944942785
H        10.08874695117962    3.90116055285463   20.82685831743989
H         9.81449154044998    2.25623319841073   21.40610334550395
H        10.66053038601984    1.33952148495830   19.25723781290473
H        11.87550201117377    2.36430094633439   20.04977674752325
H        13.70337073646624    1.91668441611898   18.80739434421734
H        14.40580317009605    0.68332457858982   16.79747867578680
H        14.91838228239708    2.19516527273365   16.03034379092504
H        16.05011478483158    1.07133595149398   18.62303512824041
H        16.85997028094906    1.09231575308314   17.05404213789292
H        17.61544485030117    2.97531202995983   18.50332594495677
H        16.81525513469276    3.56812161597368   17.04548801322398
H        15.53117334054984    3.27813846483258   19.79689217500094
H        16.01695960090106    4.80017572254453   19.04150253514706
H        14.40532799492676    4.42145053373821   17.20231508507930
H        13.58739976796688    4.41073026328977   18.76954464706479
H        11.45119295225906   -0.21137109648005   12.78785359370644
H        13.67098032183154    1.26938430388485   14.24665461016655
H        12.89829991460717   -0.24498135232690   14.78663063080366
H        15.03997701201994   -0.67405774870975   13.58724255091022
H        13.66707472764640   -1.37853099278009   12.73565009365305
H        15.02763593728212    1.26925393600959   12.05750969447436
H        15.15655954338780   -0.22743445004961   11.13196748048745
H        13.50144228974812    1.32294678936808   10.11132136241284
H        12.72915462317058   -0.16796798705877   10.65704545305428
H        11.38947830773436    1.81996869610742   11.31640021359252
H        12.79165249188033    2.46973979572002   12.17811884040908
H         9.27288967712435    2.51792518813327   12.57510673478580
H         7.98232640501861    1.30706766956988   15.06751279196648
H         8.26317453039680    3.03148281028252   14.79134372099433
H         5.90804003244616    2.45232001166352   14.35680907150594
H         6.69835299927016    3.00595964411428   12.87679489476704
H         6.23368963619600    0.09815951801734   13.67270610707867
H         5.34498929979239    0.98072492150723   12.42444492941627
H         7.14618550154027   -0.42093276823878   11.42947732649717
H         7.43722103228711    1.29645632355807   11.13859824018588
H         9.50301556595288    0.16253978235771   11.83937040720464
H         8.72609894013166   -0.39342355374752   13.33284616741114

