45
CSD_code = LOXVOL | q = 0 | S = 0 | Stoichiometry = C23H16AuN4P | MND = 2
Au        6.88643961606342    4.47504130691575   15.72580553015686
P         5.30762803594423    5.88218737316747   16.45026140641586
N         8.21655084007300    3.06455811564691   15.14336076012488
N         9.94059565779199    1.88592017467756   14.34790484285710
N         9.32437811927596   -1.51809712079793   14.92638368938368
N         5.80375433801023    1.05812426140272   16.54058115320944
C         9.41090713391032    3.07231800840726   14.52950108545866
H         9.88596836761124    3.98235180180064   14.21705231168722
C         9.04555071152461    1.01420490170584   14.87389031183565
C         7.95899868425826    1.73935122693533   15.37678930312146
C         4.28606720511491    5.19402245304533   17.77724667249014
C         4.11435465006189    3.81342053915014   17.82021378985019
H         4.60495938886345    3.17987885993992   17.09233363950736
C         3.32534358477934    3.24961969602422   18.80661541525550
H         3.19991347559572    2.17848658526129   18.83768216604498
C         2.71202703378715    4.05800288096140   19.74989564967540
H         2.10015194171113    3.61695122919842   20.52242351410345
C         2.88642178247679    5.43319450116598   19.71056763194975
H         2.41081489040846    6.06109075260672   20.44963481422035
C         3.67163110322145    6.00647313897795   18.72768753783887
H         3.81601653850253    7.07850130874845   18.69670735639406
C         5.93936514174190    7.42996118930861   17.15276647163143
C         6.84059526022529    7.30226602398240   18.20841275507618
H         7.09753543227102    6.31297936141127   18.56712833344040
C         7.39029261006927    8.42908180749649   18.78691713801562
H         8.08406656181703    8.33057010403715   19.60825000730952
C         7.05375324765381    9.68599890564714   18.30603258704004
H         7.48653891062828   10.56716669670443   18.75511663086359
C         6.16827083363092    9.81354036146992   17.24900985676928
H         5.91120434404020   10.79305363112696   16.87394841225349
C         5.60849994449658    8.68884367945360   16.66681239574190
H         4.91720199646810    8.78765574369946   15.84138968530923
C         4.13108222456085    6.41403783600816   15.17739088158909
C         2.77032683307179    6.56462789733658   15.41962721869432
H         2.36754362513007    6.35256670622561   16.40012103730097
C         1.93675675290997    6.98037040693811   14.39619798156483
H         0.87924568507364    7.09592388253175   14.58183110171878
C         2.45302011662312    7.24454177667187   13.13792774994187
H         1.79680689030829    7.56690943840963   12.34364187577176
C         3.80886606894621    7.08848080506020   12.89329003427065
H         4.20949750294246    7.28784803728495   11.91068783120010
C         4.64684647741835    6.66821590308330   13.90847392944511
H         5.70671389550783    6.53124922311944   13.73073613068918
C         9.21314273524630   -0.37612425079760   14.89510414796981
C         6.78825381022956    1.33353283885017   16.01114722484343

