108
CSD_code = LOXXON | q = 0 | S = 0 | Stoichiometry = C45H51N3O3RuS5 | MND = 6
Ru        4.60080669730376    2.83641683779914   23.36753144440339
S         6.41705665659907    4.21409525651745   22.40477881758958
S         3.85980076743755    2.57468925692264   21.05961238415388
S         5.21482470860602    3.03317736120591   25.68012707763724
S         2.50145962958861    2.84358037373788   24.03488188369445
S         7.50551821127922    7.26420154333570   26.77476509999049
O         8.56527874503740    7.34817985950861   25.81238223583923
O         7.26731839401611    8.38940300184535   27.63146594580556
O         2.55774290952997    5.85670310140785   23.86760192899053
N         6.61115180042019    0.61066670605957   22.53344303978986
N         5.01268857998346   -0.03452875769323   23.83763683237305
N         7.83852420409538    5.95693435141335   27.76369836668793
C         5.54792783078474    1.02411608608337   23.22201904360800
C         6.88322556271090   -0.81714472793320   22.69540675368124
H         7.85608483273714   -0.95513429994352   23.17916583763230
H         6.91257803489233   -1.30985417853219   21.72135132563886
C         5.71746110531231   -1.28278234430386   23.56127575653657
H         5.05343530492603   -1.97789148113893   23.03745444802197
H         6.03657731206650   -1.75207853803211   24.49542297820398
C         7.55435305744977    1.36609102519911   21.78671944694229
C         8.54557536600534    2.08272711332490   22.46328835489271
C         9.49610974194053    2.76169974614683   21.71672647186381
H        10.25727101556309    3.32992822204777   22.23124348161702
C         9.49079235090607    2.72519742815576   20.32963090114515
C         8.50676360728437    1.99019887892469   19.68548220409506
H         8.48925548372068    1.95756549928073   18.60580629938550
C         7.52994587442015    1.30581508910966   20.39289217190361
C         8.57586151414219    2.11919798281157   23.96123981214699
H         7.60491857593691    2.41651349438705   24.36178939657828
H         9.32092915255619    2.82758699423797   24.31097659941363
H         8.81898691714281    1.13662305426931   24.36620211030797
C        10.53123313690986    3.45289900807660   19.53553730913810
H        11.28634789257291    2.75268402172969   19.17770524969866
H        11.02630157127502    4.20746937499133   20.14105784508309
H        10.08232164761426    3.93153936780001   18.66800644572149
C         6.48183759393283    0.52296485176567   19.66256385937841
H         6.80184212211961   -0.51098331019317   19.52436937420644
H         6.31198734235513    0.95407068837650   18.67939719022350
H         5.54046779020959    0.52763654750183   20.20791725709216
C         3.89873698032468   -0.07832905690685   24.72484960642298
C         2.60982410409734   -0.22961935643104   24.20348730077337
C         1.53954406821830   -0.27617290880255   25.08448631216839
H         0.53969852991206   -0.37268823524920   24.68647980693019
C         1.72331849991645   -0.18676986598959   26.45628032440971
C         3.01634747213405   -0.09624670201324   26.94862089293800
H         3.17496317491797   -0.04802674070531   28.01645021521857
C         4.11690869629126   -0.05670851988435   26.10451946196893
C         2.38947255707389   -0.34118580142494   22.72620949359318
H         1.32734381115902   -0.35570765755010   22.50005913797180
H         2.83799318771304   -1.25481228135126   22.33621944084642
H         2.83889070798924    0.50480164981427   22.20401317562385
C         0.55888336769577   -0.21594366990345   27.39761759173718
H         0.67619607965681    0.54446420179473   28.16698513771748
H         0.49792999158010   -1.18680240533750   27.88971341364904
H        -0.37378202112816   -0.04093839248112   26.86799584844112
C         5.49724636195255   -0.02919967622690   26.69009832670391
H         5.81646670192422   -1.04497852212108   26.93072293777901
H         5.50202868104346    0.55001482960962   27.60980515427726
H         6.21469304429460    0.41482351110854   26.00529416009376
C         6.11149975666652    4.14065441759861   20.64716932282245
C         7.01097183015839    4.80732780464947   19.83098494556908
H         7.84794462200541    5.31416407323202   20.28592009790670
C         6.82722863244242    4.82018891931398   18.46259967169717
H         7.52481871799521    5.34322059122735   17.82700504982104
C         5.72943475223561    4.16581841478594   17.91628806672334
H         5.57393386399177    4.17406992083905   16.84735588052534
C         4.83423541914672    3.50607013599400   18.72696357501038
H         3.97940774438972    2.99460485261226   18.31157554265451
C         5.00848544553127    3.46744753206073   20.11598010294832
C         4.86136152717096    4.86633209165750   22.94304355836650
H         4.24683817018023    5.22827469058225   22.11323222317862
C         4.87302161758494    5.74389914243128   24.10839727791306
C         6.04082864124235    6.09888000374080   24.77757029751114
H         7.00406704169852    5.79603965872677   24.39525544984141
C         5.98218734422497    6.85472370199014   25.92727577804591
C         4.76998022441660    7.25556144095124   26.45396884585821
H         4.75811587679377    7.83379685042742   27.36361798282525
C         3.59564833303784    6.94199756574119   25.79140323490290
H         2.65610342650295    7.26124571491239   26.21325161639936
C         3.62962666965665    6.21303144501946   24.60585809583253
C         6.87200062418405    5.76866969239448   28.81480902634745
H         5.94651907178463    5.30844490795929   28.44564319152241
H         6.65011301785167    6.74841827022600   29.23033931704919
H         7.30266800036903    5.13513774077838   29.59077127710060
C         8.22969926858649    4.75894144663098   27.06209692070645
H         8.77912953080897    4.10871313088917   27.74376190442925
H         8.88340843747128    5.06343976890746   26.24919546837042
H         7.36879755408437    4.21112673842902   26.66044829148073
C         1.25685416512057    6.35100778976359   24.17364654663357
H         1.04734695824029    6.18645242260501   25.24116000297987
C         1.14137786006477    7.83580129693250   23.82896266681468
H         1.87613246815441    8.42766572932486   24.36919057506440
H         0.14719539838239    8.19449937081594   24.08087252415829
H         1.30636982452254    7.97512909468147   22.76295682045850
C         0.28566077568086    5.52616146243316   23.33659632774550
H         0.49043668359923    5.67772841744253   22.28017290891119
H        -0.73666460466110    5.82377057289448   23.55103565571899
H         0.40810117256328    4.46952097402560   23.55559650636445
C         3.69066702719725    3.19695437354452   26.47212902930913
C         3.64051058907173    3.39942025122598   27.85301054243288
H         4.56874293268718    3.43998865985715   28.40341705066960
C         2.43035214104359    3.53646894497375   28.49274868520970
H         2.40436372108012    3.69704365013553   29.56058292500363
C         1.24031258781092    3.46699457391109   27.77201801214931
H         0.29331013884518    3.57777690769262   28.27892503306833
C         1.27245834180594    3.25069763958150   26.41250108772918
H         0.36109012589651    3.17842084620096   25.83792454922508
C         2.49223949256118    3.11470747109398   25.75348981660409

