85
CSD_code = LOXYEE | q = 0 | S = 0 | Stoichiometry = C37H40Cl2N2ORuS2 | MND = 5
Ru        3.70199644621138   16.85313013114877    6.95428355493340
Cl        1.54574967784005   21.62458427578765    5.85045817397830
Cl       -0.63552733890988   17.60364131776772   10.04166352836506
S         1.81286527257123   16.79319030936251    8.33961436025035
S         2.94413068975927   18.86032438054909    6.16116032616048
O         5.73227297626891   17.24614669209344    5.87651679553946
N         3.04396937369400   14.00303434007497    6.21455531538761
N         3.91212315125597   14.12303491748029    8.20083136935231
C         3.67156389087145   14.81580068268698    7.08353924900237
C         2.69725793727069   12.71076469872085    6.80351447824306
H         2.99034323214893   11.88580711971407    6.15273081066585
H         1.61262771441399   12.66221645983866    6.95268052345794
C         3.45376758838121   12.73785217276219    8.13058489546736
H         2.81348321659429   12.50107201954406    8.98085990237788
H         4.31470254984136   12.05771850136342    8.14603124732105
C         2.90088658397814   14.20720209811153    4.81447159641545
C         3.79148515400783   13.57088509967051    3.94381194110535
C         3.64239903116157   13.75873489776151    2.57662020740199
H         4.33569958809043   13.27146629447352    1.90559241377431
C         2.63345692483758   14.55442267547209    2.05763639657565
C         1.75759181453661   15.17127692289804    2.93966798531650
H         0.96759841949671   15.79700128848523    2.55070335711857
C         1.87032061357372   15.00860393253881    4.31213821648526
C         4.90150950132101   12.69216694792237    4.44545405350666
H         5.23326108134213   12.99445936422582    5.43622174011782
H         5.74997980660940   12.72935010638223    3.76507987927254
H         4.57123601839645   11.65314962514705    4.49441850343253
C         2.47705362980568   14.74569546184619    0.58083176663417
H         1.56979196904253   14.25208202420036    0.23342773620397
H         3.32328262157888   14.32959263696131    0.04014348328397
H         2.39069876417130   15.80386270079045    0.34083380304319
C         0.93821957513387   15.72297712120537    5.23365694696003
H         1.43748831865538   16.62370544384067    5.62108805838024
H         0.65797382156721   15.10796340510526    6.08751437238941
H         0.04066988413485   16.04349868456338    4.71151031252941
C         4.74583069353107   14.53314216063107    9.27556085824056
C         6.12153993365243   14.66816494440274    9.05151674555114
C         6.93736976494667   15.04405611275946   10.10363159223993
H         7.99790998990252   15.16215968392362    9.93308165287921
C         6.42268442949690   15.27822457576205   11.37253732579663
C         5.06312775170020   15.11432118765643   11.57510353565944
H         4.64687728149562   15.28797745046856   12.55717619732208
C         4.20826900548796   14.73920531552701   10.54590670244421
C         6.71413122558380   14.39815944946832    7.70012284599824
H         6.69426059654411   13.32928959372383    7.48074307413599
H         7.74680144686446   14.73510758388218    7.66639366687201
H         6.14875286279757   14.92157897464618    6.92813345787878
C         7.33363077899752   15.70014402372174   12.48453723989885
H         8.11582955774020   14.95778193962437   12.63730823137315
H         6.78461604341994   15.82443971476285   13.41407081459982
H         7.81782111774911   16.64373024282812   12.23611701086237
C         2.74753723598078   14.56541274881671   10.82076941405979
H         2.15685564670158   14.82152694100160    9.94556316955355
H         2.44014536896869   15.20975767351688   11.63977053826464
H         2.53290807831428   13.53502481612700   11.10842503694586
C         4.80510040376829   17.38117984460265    8.38388789769162
H         4.44906032096399   17.52829624336085    9.40783260721904
C         6.14676305662381   17.75370001531653    8.12517893111999
C         7.01858992312732   18.18285352241258    9.13790299634105
H         6.64131371053954   18.23513757558293   10.14843870540727
C         8.32309473254746   18.52409003273742    8.85562106306019
H         8.98224931730054   18.85104763682881    9.64598871972920
C         8.78903075619942   18.45471366981199    7.55203495072334
H         9.80909001260027   18.72556192512912    7.32487958446659
C         7.95551750957302   18.03747558377379    6.52286891841079
H         8.35448978367143   17.99605803165797    5.52123050461465
C         6.64474611212886   17.68665539925147    6.79599089003253
C         6.05266420153520   17.25598266874810    4.48552237761099
H         6.65439907672487   18.14802428566036    4.26689230084278
C         4.73103103389284   17.33884074691248    3.73468124820018
H         4.04747142028318   16.58391064116597    4.13379527654029
H         4.87727869567949   17.14935262283757    2.67528851602556
H         4.28051125838447   18.32072722556190    3.86288347146672
C         6.81707631607760   15.98584692457682    4.11369474077313
H         7.69941792728606   15.86282538689099    4.73753305653196
H         7.12613964131171   16.03020056120276    3.07301746598035
H         6.16908168952023   15.12428520278814    4.25082706841095
C         1.08844037799573   18.35918519165704    8.11572964789335
C        -0.01864566784943   18.72295033653830    8.88313406547968
C        -0.63035736770800   19.95172902113601    8.73210208638839
H        -1.48268689869814   20.20525413812815    9.34126401108553
C        -0.14195890064498   20.84951602800198    7.79561820920072
H        -0.60763935718243   21.81255317462749    7.66406844599914
C         0.95086939600188   20.50342514241615    7.02392636829205
C         1.58083320881683   19.26840133694111    7.16814946344163

