85
CSD_code = LOXYII | q = 0 | S = 0 | Stoichiometry = C37H38F4N2ORuS2 | MND = 5
Ru        2.65501400799975   -0.54233006690863    4.53931541826155
S         0.56021395999513   -0.65072521590400    3.65248208406495
S         2.78384248801212   -2.86572463628469    4.31692966987499
F         2.20521227637128   -5.44674652138854    3.02979343587969
F         0.07648495385979   -6.08060590487432    1.47296128226480
F        -1.84874407011418   -4.20492211098637    0.95191888653464
F        -1.61835765711649   -1.70429321870525    1.99281431448040
O         2.35757618498896    1.71138834963072    5.13721231165455
N         5.66473826078563    0.10572849465065    4.45589131449330
N         4.79117433995551   -0.58939568426076    2.59853660980584
C         4.53918854344508   -0.31614148265796    3.88365002425161
C         6.80448878589616    0.10632749028129    3.54104962014908
H         7.56600392106910   -0.59888269060991    3.88810490128743
H         7.25566276518304    1.10129889436775    3.49733107565408
C         6.17047907403555   -0.31747793977748    2.21242637779320
H         6.20027627114243    0.47867281761881    1.46018238777784
H         6.63514619564024   -1.20948419989148    1.78591821217089
C         5.84680117763209    0.37673413332729    5.83794163412926
C         5.84025952596850    1.69769898854736    6.28043669094785
C         6.06587150149483    1.94997261128926    7.62544907958423
H         6.06141146743384    2.97165760357896    7.97628466209056
C         6.28340894382240    0.91888042853201    8.52494017998073
C         6.27162084228902   -0.38943848129203    8.05873183574908
H         6.43311598413694   -1.19877267175494    8.75614177725786
C         6.05703113664867   -0.68371244295579    6.72245003604376
C         5.59521155246201    2.82331298951761    5.32108244438323
H         5.23974096906699    3.70149782956367    5.85315197374564
H         4.85181297157326    2.53136742430747    4.58118409293795
H         6.51430210404268    3.09293270001995    4.79890990573025
C         6.53321779313913    1.19809825919770    9.97477693678116
H         5.91294675692244    0.55789350049598   10.59792149902109
H         6.31885116568375    2.23597164932095   10.21333690327322
H         7.57477199632743    0.99491745099115   10.22243538554999
C         6.04602593706761   -2.09842479884138    6.23242076512816
H         6.09444096406037   -2.79138794203662    7.06695273642301
H         6.89792555072334   -2.29023966400806    5.58043317087674
H         5.13362648408979   -2.29555667372318    5.66728363306752
C         3.80948186341905   -1.03295745884387    1.66649835050655
C         3.79274427694931   -2.36711228838567    1.25180347616443
C         2.79829360590357   -2.77259521140987    0.37178388350832
H         2.77034892395613   -3.80732106582711    0.06204595004571
C         1.83520345265887   -1.89331858667529   -0.09854693799965
C         1.90048387049989   -0.56246084419648    0.29511845668330
H         1.16421753408474    0.13569307489549   -0.07673571699845
C         2.88086426677890   -0.11300005799921    1.16494114546553
C         4.81266541032518   -3.35211261255916    1.73505357605728
H         4.38280309635722   -4.34917540771580    1.77225355697182
H         5.16115530040486   -3.09757001971114    2.73313621961719
H         5.66365271042831   -3.37782032478008    1.05233508024601
C         0.75601067462268   -2.35103165297227   -1.02920995944291
H         0.69662166934338   -3.43589803169427   -1.05579095624423
H         0.95612321223923   -1.99389944249068   -2.03965461324859
H        -0.20919424220918   -1.95239721049201   -0.72336474776639
C         2.97421091500421    1.34285019468920    1.52539516649482
H         3.14690901082868    1.47583108203881    2.59650689689437
H         2.05945822690467    1.86088247345010    1.24909957352340
H         3.80430707103801    1.80702145495662    0.98950961487314
C         2.85480462248217   -0.62276342663288    6.40760129652025
H         2.90047295313760   -1.55131426621167    6.98449032691542
C         2.82638224843381    0.58026355913946    7.16227188187478
C         3.05151904511105    0.60875868149905    8.54729065147182
H         3.23109515151269   -0.32525098380623    9.05836573054211
C         3.05214831695488    1.79805765152898    9.24181994730342
H         3.22234336371205    1.80315460486967   10.30779570105279
C         2.83589419733524    2.99100863673312    8.57089608366338
H         2.84818986329323    3.92715323828658    9.10863603371984
C         2.59609427823509    2.99603018640163    7.20453021617503
H         2.43629647252612    3.93752215849266    6.70611373163426
C         2.57494099263962    1.80577215211712    6.50049259965286
C         1.26663013605494    2.46130700061120    4.55574250172694
H         1.06207261840520    1.91493745591094    3.62736795466234
C         1.66615080983097    3.89141808644989    4.18279422352977
H         1.52090963574639    4.58602687892094    5.00541595804489
H         1.04835315951569    4.22689289420346    3.35367448866218
H         2.70755069633083    3.92516688688519    3.87013332978983
C         0.01291818958627    2.40104182613271    5.41810033623395
H        -0.20404462049277    1.36260091428536    5.66674028354751
H        -0.82635254909194    2.80455045987739    4.85906697632107
H         0.13024359441412    2.96698162556195    6.33923430282375
C         0.40989934518551   -2.28013934779163    3.07243193506149
C         1.39684529316667   -3.24136574318888    3.34847091724734
C         1.25542554231199   -4.51954382309018    2.80821551318168
C         0.17360535058709   -4.85109166043785    2.01057053959920
C        -0.80524758931868   -3.89785973732077    1.74394933705901
C        -0.68009709289833   -2.62671324201303    2.27942591753582

