57
CSD_code = LOYGUD | q = 0 | S = 0 | Stoichiometry = C28H22N2NiO4 | MND = 4
Ni        2.11283053685884   16.92362657122826    3.75627543421137
O         0.98500243428545   16.91611973303523    2.29235897106078
O         3.35106272545945   15.97517620391408    2.74203478707663
O        -2.85451794707587   17.39424458168568   -0.39341231037731
O         6.92474287561837   13.10168338478350    1.66748785927905
N         0.82186975895329   17.69126416105533    4.86082926355746
N         3.25142439790389   16.97453250195505    5.20752901414679
C        -0.24220594646223   17.26174895904501    2.20400518866020
C        -0.89627853588178   17.16137752326439    0.95258138933929
C        -2.22018551500725   17.49332733144040    0.80066983239576
C        -2.97556671256547   17.95304106061120    1.89801471115988
C        -2.37586999682153   18.06901658262614    3.11762825749821
C        -1.01876959239291   17.74343744910848    3.30992274156173
C        -0.42742653035868   17.89962467546393    4.58226626167536
C         1.27124674870014   17.90038305870183    6.23437280515847
C         2.82437767101748   17.95234037027313    6.19069975004894
C         4.37951944005206   16.36177698044002    5.37911617283945
C         4.99311753781629   15.51947277913542    4.42792117327082
C         6.18499811534826   14.83734614818415    4.74133416800637
C         6.81564587736047   14.04116964417528    3.83112047150829
C         6.26565704028890   13.90202543917438    2.54084639884068
C         5.10885864858768   14.55792801817831    2.19828278635636
C         4.42048999106459   15.38520657599645    3.11819507916653
C         0.71938706352390   19.13304778283170    6.91066527230910
C         0.49491005177749   20.31066485297579    6.20692953961775
C         0.05671049851354   21.44443784233250    6.86590619922786
C        -0.15750741033708   21.41860699956457    8.23351120385831
C         0.06167345168737   20.24912078142057    8.94021895052832
C         0.49666298072525   19.11281624390086    8.28131496472765
C         3.29875657311743   19.33697085404036    5.79437976312714
C         3.32657248192070   19.72743165632327    4.46089062348706
C         3.71626453252795   21.00879900818803    4.11615176404657
C         4.08037873565760   21.91311864620482    5.09980044286046
C         4.05768369473729   21.52916651589450    6.42941909785233
C         3.67086908719869   20.24682790894800    6.77508818965871
H        -0.31359435786493   16.80261187504937    0.11538404178031
H        -2.23984217055447   17.06754707604987   -1.06252329732194
H         6.45544621489439   13.08401067056136    0.82384426095814
H        -4.01196016705678   18.20260533759827    1.74281418603053
H        -2.94373078582257   18.42502427752303    3.96574182615962
H        -1.08736852302284   18.23940340770778    5.38268177749727
H         0.98685983022190   17.01323916110015    6.82275688705352
H         3.22769729302820   17.71172261690724    7.18595603413249
H         4.91255755719807   16.51196764860877    6.32099008257235
H         6.59880991073840   14.95368855363232    5.73310459934031
H         7.72516982811210   13.51306635135757    4.06416617352387
H         4.68380818641726   14.45479267598686    1.20945102207194
H         0.66237391867974   20.33996170129420    5.14076451326123
H        -0.11348125635102   22.35284151836260    6.30790793985036
H        -0.49598682494903   22.30624143654881    8.74655031848022
H        -0.10637896155444   20.21975984434691   10.00663483282436
H         0.66616803118901   18.20118057046882    8.83743807623314
H         3.03845483083702   19.01908546987567    3.67560285258744
H         3.73379492990331   21.30168199214870    3.07704954275375
H         4.38301202243150   22.91389329184883    4.83016002112563
H         4.34130878725697   22.22925474357721    7.20103779560206
H         3.64839694246706   19.95374095333765    7.81523029574376

