84
CSD_code = LOYTAW | q = 0 | S = 0 | Stoichiometry = C41H38N2O2Pt | MND = 4
Pt        1.89310144483604    1.51963948168705    7.76411446196542
O         3.27736980965737    2.00477177434841    6.21770106039060
O         2.89337372058321    2.85418707927926    8.92965664062437
N        -0.35252490687993   -0.19750828096926    7.36904258093141
N         0.80532396367275   -0.24927428851586    5.51257889869770
C         0.78395148347003    0.24887243589336    6.76440211906653
C        -0.33030071452529   -0.99223268071109    5.29084176826412
C        -0.77240103410259   -1.67184594185924    4.16710369411254
C        -1.97695515372096   -2.34182967504284    4.26021765978257
C        -2.71730597353548   -2.32887511466696    5.43886605956355
C        -2.28678176991265   -1.64883277326884    6.56270940453181
C        -1.07668368202101   -0.97127935704395    6.49013798388960
C        -0.52890727177405    0.22806903386850    8.70370344083569
C         0.49671678423253    1.09402725947137    9.13324970545221
C         0.42767985057089    1.57329027735148   10.43307605773046
C        -0.61389678557589    1.20727281722929   11.27516752554011
C        -1.60353611357070    0.35106155472544   10.82957393322956
C        -1.56721767882693   -0.14823880258442    9.53604188107687
C         1.85032795556434   -0.00192568045746    4.55715149650389
C         1.70280017330799    1.30250238407612    3.80741082313732
C         0.89006775732851    2.32918924210834    4.26290567651123
C         0.81862897449135    3.52267623985611    3.56478370075180
C         1.56284913053816    3.70448120743003    2.41300076269317
C         2.38615244769325    2.68772275915252    1.96138345539642
C         2.45267754267324    1.49382223693208    2.65387233033486
C         6.26863206624280    4.31470774145331    1.04944094809790
C         5.72987924705126    3.96018042716005    2.40315808711174
C         6.10583431006870    2.78946325288070    3.04217353809400
C         5.60463413489278    2.45616141450565    4.29193887112106
C         6.04378955099080    1.19609870727210    4.97681293137153
C         4.71285646768079    3.32468014756273    4.91817330923239
C         4.32119860550502    4.50872215980068    4.29258430849535
C         3.35181274869464    5.44397167195333    4.95293068641154
C         4.83840244056716    4.80982094323414    3.04309011728937
C         4.09787462549993    2.96107137968952    6.23503474514275
C         4.46941721458915    3.70891656368774    7.35406987929968
C         3.86815343264748    3.59040816164924    8.60893177200410
C         4.40745543465708    4.48117122143075    9.68737674235876
C         5.61530546584098    4.17075979362333   10.30814037688795
C         6.38068736465755    2.94506757637005    9.90503942639178
C         6.08823379555436    5.00548419486062   11.30991838485106
C         5.38333323649894    6.13377382820192   11.70216935896506
C         5.91716225837061    7.03918811479708   12.77139352991778
C         4.17814371754057    6.41891076789843   11.07532094895405
C         3.67469104573703    5.60288237226030   10.07452789111685
C         2.36906357560513    5.91380281399751    9.40581893493859
H        -0.20484141380598   -1.67056712174375    3.24993422997813
H        -2.35326611668347   -2.88077230951399    3.40451105441645
H        -3.65561255411667   -2.86075944878955    5.47567032014383
H        -2.88802681116323   -1.65074230710315    7.45524917198128
H         1.19843907932193    2.23799877363122   10.79616229804018
H        -0.65036543678743    1.59043840780922   12.28485578516776
H        -2.41115122640379    0.06377979045960   11.48669255437333
H        -2.34208157876452   -0.82017463348919    9.20608317205321
H         1.88937440910506   -0.83757703136808    3.85318781325857
H         2.79657133812396    0.03688233690852    5.10596562380094
H         0.31743860772959    2.21249297113940    5.17472432425198
H         0.18095519541459    4.31555538040385    3.92780469534925
H         1.50730112047341    4.63753824254403    1.87242467661557
H         2.98053825284272    2.82508134138647    1.07072255928116
H         3.10209817515050    0.70438385963994    2.30324119250218
H         6.89669208938749    5.20308382219239    1.11393827990893
H         5.45472347926237    4.53445364306361    0.35984543985845
H         6.86355227111832    3.50167776985243    0.64071776593896
H         6.80069705262323    2.11771849028256    2.55694933717121
H         6.58909423340884    0.55142802119745    4.29160447826444
H         5.18766023591601    0.65159841185319    5.36832821941014
H         6.69557396469370    1.43516017515550    5.81813078612920
H         2.55572487472262    4.89002673003675    5.44606693099374
H         2.90988985988008    6.11527720399181    4.22039921417756
H         3.86091146923451    6.04716807603148    5.70541022929992
H         4.53497150163924    5.72395880106453    2.55178707347675
H         5.24571396611246    4.45005496449804    7.23542964113032
H         6.82214105652517    3.08069367311967    8.91745880947183
H         5.72028443211915    2.08060409573194    9.85773561171882
H         7.17890605922796    2.73808437088788   10.61394975996094
H         7.02306790007076    4.76681812965601   11.79813022555429
H         6.59881243473746    6.50475277941031   13.42885735581193
H         5.10678794165788    7.45570452859011   13.36576932023979
H         6.46273101566510    7.86860513135074   12.31954325316980
H         3.61690481193354    7.29210968326596   11.37821468276031
H         2.52027644977206    6.08823907454930    8.33996674129128
H         1.90988975291293    6.79743105734762    9.84243378206609
H         1.68235141386123    5.07430667239770    9.50796568190529

