50
CSD_code = LOYXEC | q = 1 | S = 0 | Stoichiometry = C19H24CuN6(1+) | MND = 4
Cu        7.66142693467480   -7.35444888821799   -3.66392348732845
N         9.38522797982524   -8.26016451835816   -4.55796838201084
C         9.53160100926863   -8.05007617113885   -5.86325641888382
C        10.77758598923866   -8.05253423737373   -6.47346522685591
H        10.86843918053908   -7.89065246696351   -7.53562495103665
C        11.90038244461151   -8.27911127070586   -5.69279059173445
H        12.88404959758878   -8.28510695810258   -6.13555712536937
C        11.73748675099380   -8.50987534314148   -4.33525571284088
H        12.59013061920495   -8.70706835821875   -3.70524724967188
C        10.45502350844691   -8.50322894206694   -3.80566376561937
C         8.26141889282627   -7.75752058489674   -6.62336976359029
H         8.38479588840361   -7.94275419713436   -7.68967652649598
H         7.45777486075720   -8.38489255452541   -6.22078752960630
N         7.90568920198127   -6.37626466785635   -6.41729550705547
N         7.59580599051692   -5.95567907272935   -5.18292030598286
C         7.38300403517277   -4.64719177761821   -5.25844243706105
C         7.56450478671502   -4.22502642484328   -6.58064399055435
H         7.45901119483273   -3.22975037632565   -6.95886712773734
C         7.90684678935426   -5.35409007146601   -7.29813591017724
C         7.02163555932829   -3.82243480766628   -4.07975200951270
H         6.04162812901755   -4.10776104322348   -3.70136171368410
H         6.99875630138254   -2.77226876086747   -4.35512235120340
H         7.74988576307585   -3.97076461749316   -3.28577777628548
C         8.21837481473320   -5.51200476344389   -8.73977575231801
H         9.24123711243332   -5.85871870261368   -8.88426104822640
H         8.10909525067524   -4.55346624668540   -9.23811503557546
H         7.54144124693913   -6.22387460233881   -9.21115744632951
C        10.18834661217009   -8.81294183150034   -2.35277291865066
H         9.38494858411571   -9.55868811455728   -2.31132394638326
H        11.08382516164240   -9.21534201119011   -1.87974164156539
N         9.75302962775450   -7.65654711406045   -1.61172020320708
N         8.54825523003367   -7.11773212228953   -1.85186725074392
C         8.34901539788228   -6.17611723450147   -0.93756674819425
C         9.46429381276284   -6.10722406240249   -0.09368424240372
H         9.60324759220671   -5.44880445024726    0.73809942493585
C        10.34480513223880   -7.06786688214541   -0.54902528996183
C         7.08127446606584   -5.40992639613904   -0.85685308161603
H         7.27344642906393   -4.33916406990121   -0.86384064353441
H         6.56656931732384   -5.64789118171777    0.07316615939178
H         6.44361954175258   -5.67407126525158   -1.69706669008148
C        11.68378617074071   -7.44992249558538   -0.03791685722290
H        11.68457418639905   -8.47503995148876    0.33250734740072
H        11.95641478668117   -6.79211826664357    0.78192183804502
H        12.43974718058561   -7.36187055014421   -0.81734549548758
N         5.96744447326245   -8.23798340826746   -3.59938818341160
C         4.90689038248895   -8.37375391719337   -3.17969383274545
C         3.58391756469264   -8.56367766175941   -2.68605511242478
H         3.30322566553118   -7.72240553903371   -2.05227042353873
H         3.53879804852646   -9.48313585521433   -2.10262671797397
H         2.88496480356050   -8.63394519275170   -3.51952034786203

