43
CSD_code = LOYZUU | q = 0 | S = 0 | Stoichiometry = C16H14Br2MoN4O5S | MND = 6
Mo        8.05333679759251    1.61875983411850    5.31919131961998
O         8.40411269282348    1.34190420485874    6.89671486097951
O         8.13772716440782    3.16632359122769    4.77424833947423
C         1.22394170106510    3.24803350389756    6.75536967309264
O         2.44462452778186    3.67285156608708    6.43865016083103
H         3.04885879474815    2.91896535008681    6.27712605467993
C         0.25146350934865    4.21635313478342    7.02885865120941
H         0.54368697801806    5.25244839815946    6.97099082330770
C        -1.03701708548803    3.86584509212855    7.36229395222960
H        -1.77557234188839    4.62404186549804    7.57069214391462
C        -1.37889862219196    2.52027794893154    7.42869481132792
Br       -3.15977421795369    2.02493136183973    7.88673095477815
C        -0.44926822438392    1.54057116120459    7.16679605931580
H        -0.72889772406327    0.49900235543543    7.22255745760954
C         0.86430741072767    1.88244096461525    6.82615769674806
C         1.80513485989020    0.82580931891415    6.55759869616104
H         1.43319048231455   -0.20120764985798    6.63802694686793
N         3.01770037373414    1.07343620500020    6.23807334753493
N         3.87375911762363    0.08273942564031    5.98735600394071
H         3.58207025670688   -0.89517620543345    6.04787430305423
C         5.16474915427487    0.34182627499118    5.67383305559457
S         5.65572807150520    2.00553811044091    5.59646772257690
N         5.93371651726967   -0.67670233696636    5.44024120465516
N         7.22328740880969   -0.42606444094529    5.14116762519289
C         7.96211988650948   -1.49120035981738    5.05990472751417
H         7.47438256329480   -2.44639789525394    5.25583370337942
C         9.35508671308310   -1.50860732680721    4.74934305920674
C        10.06670798024762   -2.71649786106067    4.78670479057824
H         9.55640899826293   -3.62711763432807    5.06278495601085
C        11.40871667491132   -2.73444213637565    4.48372872444745
Br       12.35745951400372   -4.37864273366135    4.54333096260719
C        12.08692655552509   -1.57085344983694    4.12809772620216
H        13.14043830513951   -1.60993946859039    3.89770502462760
C        11.40269378077693   -0.37728598528866    4.07249882776984
H        11.90489571963619    0.54101813832879    3.80349130849242
C        10.03612799667934   -0.31876398165531    4.38362501716202
O         9.38004188469388    0.81363975632406    4.30989196450767
O         7.04687842381735    1.51232333654482    2.88428653715800
H         7.06299707799609    2.48264853371687    2.91279653541905
C         7.79756319961998    1.09618848677904    1.75281536044242
H         8.83393920422084    1.44189510606680    1.81177602097116
H         7.33703805424504    1.47411429509226    0.83557804147556
H         7.77890986465853    0.00607214517891    1.73749484732117

