46
CSD_code = LOZBIL | q = -1 | S = 0 | Stoichiometry = C21H15O3S6Zn(1-) | MND = 4
Zn       10.68887236615633   -0.52257066926254   -3.20612545628358
S        10.12832004814613   -0.47663436837686   -5.72179151591753
S        12.83170388266330   -0.14769902306205   -4.66748517524560
S        10.07967651589911    1.95054059060276   -2.77156315007022
S         8.27340996534677   -0.27651383759122   -2.22064604656592
S        11.03537430440550   -3.05701835813966   -2.84164619830989
S        11.91663425205671   -1.02567555832932   -0.93652874257720
O        14.22636349288517    1.26047630092871   -6.83424993255531
H        13.95811926624701    1.03072138062810   -5.91930502535005
O         5.62140038562300    0.98287893251950   -2.30008833697995
H         6.31658541916351    0.30785710004251   -2.45145763051480
O        14.06571059057447   -2.40691495702873    0.52329528134125
H        13.60335627873167   -1.68105314030729    0.05368266282489
C        11.77028250005330   -0.21292488192095   -5.98302691625878
C        12.24127130050995   -0.05719253879209   -7.35445827473877
C        13.40757508290309    0.65597383753573   -7.70762075942337
C        13.74218443378770    0.78898340803814   -9.05750702465708
H        14.63168859840432    1.35376074366774   -9.29160755724853
C        12.97670989905613    0.21589499003554  -10.04761756744429
H        13.26531907417338    0.32617116788804  -11.08317193427528
C        11.84016183397163   -0.50523633056485   -9.70857560172352
H        11.23597323139350   -0.96688320596575  -10.47515536866282
C        11.48345750550975   -0.62665187239538   -8.38515423509474
H        10.59880573643536   -1.18151823059028   -8.11230552129557
C         8.58061965739905    1.38714903315430   -2.25336026721083
C         7.57891898871940    2.35945443836108   -1.83123962299901
C         6.18768524802238    2.12388907438795   -1.88016673500300
C         5.31039781643792    3.14382041469218   -1.50348288442936
H         4.25356995123260    2.93441017676366   -1.56879669997067
C         5.77281850754956    4.36137789518535   -1.05789704876676
H         5.07126998344357    5.12868564108294   -0.76311758072490
C         7.13928590792806    4.59413822587004   -0.98509973550398
H         7.51486528227890    5.54166404959530   -0.62884902318215
C         8.01706529195861    3.60855571612592   -1.37448461857517
H         9.08123069199740    3.78223952493248   -1.32630035485623
C        11.79390008101192   -2.64895461406790   -1.39540980877487
C        12.32181010649873   -3.72143248333915   -0.55963256127662
C        13.40627659772083   -3.55882224179847    0.32922727432175
C        13.87164630387587   -4.66451467171630    1.04482760139675
H        14.71328320294876   -4.50856231473510    1.70229899253384
C        13.27564444007588   -5.89976357315341    0.92548585576236
H        13.64943684821476   -6.73536349360145    1.49982019800735
C        12.19389238837419   -6.06331206910512    0.07139013305164
H        11.71207829339873   -7.02489053820512   -0.02359918345987
C        11.73871441044052   -4.99013432827434   -0.66013662542504
H        10.90183403636273   -5.10830534172328   -1.33146727790599

