56
CSD_code = LOZCAE | q = 0 | S = 0 | Stoichiometry = C25H22Br2MoO4P2 | MND = 6
Mo        3.74312047129450   12.37536693251081    0.22467736368845
Br        2.60892632491837   10.19809067345838    0.11019224275975
Br        5.03404763035832   14.24728608947381    1.27355522498064
P         5.87374994900307   11.23632115631290    2.80518113000104
P         3.26062823512846   12.15600775119536    3.85669004973554
O         4.78564831763268   12.14401729058161   -1.01441905698456
O         2.48371588447897   13.29262443606616   -0.25659598991595
O         5.04620702417779   11.13826759429094    1.56788795693816
O         2.85425692132745   12.34113103412690    2.43525915031031
C         5.09265195922774   12.32586720737323    4.07973243507245
H         5.38212374543429   12.01243191108578    5.08095918289915
H         5.38649554360400   13.36797835398013    3.92198370408814
C         5.94496705675997    9.59589709326995    3.56968428355289
C         5.18909514518803    8.57590974515349    3.00563736060170
H         4.60898643329278    8.76638056380254    2.11254124865149
C         5.17933330942079    7.32493889543421    3.59677153948045
H         4.58834027491191    6.53446701862016    3.16122291263705
C         5.92595684547414    7.09358474267481    4.74000602875212
H         5.91754026459909    6.11759093584872    5.20144782849678
C         6.69220657691044    8.10874642995150    5.29259037069797
H         7.28131528930327    7.92184044477566    6.17806307661777
C         6.70396120171294    9.36196076079612    4.70955357487036
H         7.30559466487840   10.15513344170367    5.13015282156154
C         7.51953969544327   11.88717661983388    2.43751782958542
C         8.35726568488052   12.41115643726200    3.41362773204618
H         8.03382011895891   12.45507260185366    4.44332720170747
C         9.60119862395429   12.89538263103100    3.05382436517795
H        10.25445058652189   13.30935935022276    3.80697187903274
C        10.00516687859412   12.86047460646347    1.72844831727023
H        10.97437223468594   13.24752220694384    1.45299775019490
C         9.16668349897770   12.34183312613404    0.75514076421661
H         9.47727965597539   12.32680090156716   -0.27801935524749
C         7.92321533349050   11.85079660377107    1.10792170442106
H         7.24910458432638   11.45776275386348    0.35623022343946
C         2.52083001342409   13.43509066201394    4.90392206092410
C         1.73461601725566   13.12996393168033    6.00560673534977
H         1.57102212953884   12.09809519750976    6.28237470751546
C         1.15772366530436   14.15432580120684    6.73614889895426
H         0.54237480530320   13.92185633414351    7.59239264311686
C         1.36261660710632   15.47331955151132    6.36441680127217
H         0.90625663408539   16.26850325909242    6.93453382961647
C         2.14367073218496   15.77525065101830    5.25948160731621
H         2.29743840028569   16.80235828775937    4.96659350410315
C         2.72472471565902   14.75776720237101    4.52471974629668
H         3.32642114059487   14.98277931421214    3.65359508147790
C         2.86305768814099   10.50036101431310    4.47471508984973
C         3.37418055061910   10.03481375475575    5.68275264719645
H         3.99080172011039   10.67580012050737    6.29738043933390
C         3.08183761735048    8.75096940022377    6.10096108293964
H         3.48177586385467    8.38733958261929    7.03574557494164
C         2.27924083853154    7.93131124413842    5.32104907918330
H         2.06219347937527    6.92622841839445    5.64987961020488
C         1.75162724376706    8.40139517194026    4.13069773849151
H         1.12221473652192    7.77199826805111    3.52188182617673
C         2.03654349281014    9.68873666398461    3.70871225685849
H         1.63086594333543   10.05905782713745    2.77857618754250

