66
CSD_code = LOZKES | q = 0 | S = 0 | Stoichiometry = C30H28N2O5Zn | MND = 5
Zn        6.15915340717836    1.58952828164370    1.27795819419259
O         4.46053220070782    1.51414988314974    2.39327759819516
O         6.27431118167667    0.42092649942572    2.93149761794967
O         5.72247180173061    0.28081379595549   -0.09434742204297
O         7.56340662257239    0.23482207848120   -1.35241598445498
O         8.23783091183734    1.48468167699590    0.77523510591443
N         6.76391116139441    3.31321365299741    2.41061632903090
N         5.54066269176355    3.22547185228702    0.08065952944278
C         5.06895220405297    0.71226734350498    3.14181840937316
C         4.36004047745838    0.14822966958107    4.30833229228388
C         4.96626388816423   -0.68019157406875    5.16440751084695
C         4.40138218718009   -1.27940660734297    6.35852182661799
C         5.20051759183597   -2.11702265740228    7.14151448807808
C         4.70963417387455   -2.70098232845858    8.29103004371819
C         3.40165287243495   -2.47241365061142    8.70405110297025
C         2.60187700420074   -1.64105353152752    7.92758721784490
C         3.08801881621831   -1.05437349343554    6.77713502116814
C         2.87913818787757   -3.08849749974200    9.96517320153861
C         6.38680368312199   -0.08889458155373   -1.11061748027401
C         5.64932213625992   -0.95667135836283   -2.06964203232534
C         6.19970515460115   -1.33856031945566   -3.22530977303669
C         5.60027618282358   -2.15576803118838   -4.26324627607594
C         4.31530652679908   -2.69342044146647   -4.16388920219146
C         3.78862094759915   -3.45999529608748   -5.18343575389336
C         4.51841635028063   -3.71967312305195   -6.33811456251600
C         5.79908734478032   -3.18798848175588   -6.44128880625003
C         6.33044995167048   -2.42136937844464   -5.42471277988377
C         3.95279904826757   -4.56920108412817   -7.43459565008391
C         7.44058465557611    3.25617978227205    3.53944583501867
C         7.88531420127865    4.39114806983252    4.20189862176816
C         7.61593167930079    5.62635055159175    3.63596482335917
C         6.90274313561178    5.68140593210229    2.45043148625420
C         6.47719602463417    4.49069369629225    1.86196220019314
C         5.69253971147587    4.43551401648538    0.61791501128534
C         5.11589528064884    5.56203915674945    0.03285918988706
C         4.38374483231645    5.41528899953165   -1.13311387873093
C         4.24223734740772    4.15113644736035   -1.67976439570478
C         4.83856546284984    3.08228773887781   -1.02630568037976
H         3.33422734235999    0.46705448953077    4.40998993021650
H         5.99849900787394   -0.93335088578394    4.95308929766517
H         6.21959526274003   -2.30873072437586    6.83674154415780
H         8.10646183976638    1.03766072889953   -0.12892385816289
H         8.61774244888191    0.79209984014156    1.32347061628280
H         5.34681550437496   -3.34629966944169    8.87958776848684
H         1.58112237725357   -1.45416542673142    8.23105479260785
H         2.44211918694822   -0.41629589689012    6.19449377880854
H         3.29330930899908   -4.08395764403624   10.11059996573232
H         1.79395726615883   -3.15574313598583    9.94562451250151
H         3.16508021882522   -2.47861157116688   10.82329242305897
H         4.65144482400316   -1.22773316567984   -1.76038531955600
H         7.20976869564062   -0.99611541540187   -3.42007383002611
H         3.72495831130137   -2.51022643469269   -3.27953884872522
H         2.79145581116086   -3.86629595924466   -5.08467406063646
H         6.38264560698866   -3.37826931054397   -7.33140877615283
H         7.32734554627919   -2.01564805976906   -5.52429128797484
H         4.27930890944546   -4.21191105501984   -8.40921993956104
H         2.86566259688713   -4.57182959473589   -7.40421547540316
H         4.29714637306316   -5.59831255371005   -7.32301138721204
H         7.62392097236963    2.26296273488554    3.92277844701263
H         8.43168374888719    4.30716704362563    5.12758357635084
H         7.95483898506789    6.53625769950946    4.10917749856381
H         6.69706546201745    6.63472897414627    1.99164578775955
H         5.22010623984124    6.53619534733832    0.48208757944580
H         3.92680779626991    6.27501523627066   -1.60073096274155
H         3.67900189250002    3.99203698730039   -2.58516579926544
H         4.75011142461310    2.07365173451915   -1.39987095232066

