47
CSD_code = LOZMOE | q = 0 | S = 0 | Stoichiometry = C16H18N10S2Zn | MND = 4
Zn        1.59918194425696   10.53305520362263    7.20868306712673
S        -0.34683207408332   13.15647855979004    6.26344109328606
N        -1.29227282776206   12.81548644650135    8.82035862116583
N         0.79570754954403    9.37533607616894    5.69693016305953
H         1.46507457051768    8.59424589278341    5.62463609141815
H        -0.13683025328927    8.97574679243798    5.75640363314035
N         0.25122571337584   11.42784828273161    8.20758558508817
N        -1.01391874963103   11.96402566226344    9.83221894539424
C        -2.24209201331297   13.83085796405309    8.97683504410543
C         0.91184300941480   10.18930922507117    4.48088874684116
H         0.13082702292156   10.95445073650771    4.49625591039421
H         0.80283923583585    9.58135101830612    3.57662976875152
C        -0.48203944789689   12.47907039133315    7.77002668768910
C        -3.77545567233953   15.44273723061596    8.09797902893713
H        -4.23825175929607   15.92251264890877    7.24871709045269
C        -2.83965143630467   14.44652628173692    7.88399728134193
H        -2.57779427836964   14.15541338420435    6.87999322737970
N        -0.12499845584990   11.16824909375835    9.46265739730266
C        -2.58920653541505   14.20119840092720   10.27378590410292
H        -2.11812813826166   13.70228296878879   11.10601270027658
C        -4.12064739091533   15.82016976592167    9.38417325275139
H        -4.85128348509901   16.59931964879614    9.54162613687791
C        -3.52792588518565   15.19457464802689   10.47003217402712
H        -3.79502441841412   15.48390366600530   11.47533695123720
N         2.39690868038876   11.68693275683340    5.69092299348906
H         1.72709532523153   12.46756630694180    5.61864941174130
H         3.32954050975008   12.08693068537105    5.74600072778400
C         2.27682792171808   10.86931151950481    4.47767344511919
H         3.05788450388153   10.10420295209201    4.49271680217937
H         2.38289238291826   11.47459081779614    3.57127145264133
S         3.53790142215499    7.90267708546681    6.26346504100487
N         4.48679742025265    8.24447976624316    8.81887827578030
N         2.94822311262534    9.63719649708826    8.20524433289565
N         4.21288248194121    9.09884497598907    9.82954575297207
C         5.43213339030548    7.22495972301595    8.97621669245413
C         3.67699919439182    8.58240151411124    7.76870300761284
C         6.95778141883533    5.60464121593464    8.09889098314549
H         7.41811520002100    5.12149072324476    7.25012790099678
C         6.02642721965030    6.60493458012847    7.88407487087446
H         5.76557454186295    6.89563133158172    6.87963829018949
N         3.32674234720524    9.89747915816426    9.45949556720087
C         5.77777147683169    6.85486883988974   10.27372152444976
H         5.30909116752597    7.35704459065682   11.10541777597050
C         7.30155448549161    5.22757347474304    9.38566102089188
H         8.02873420292366    4.44526035753308    9.54376718263625
C         6.71201452216549    5.85736549111856   10.47079159825410
H         6.97796084749002    5.56826564729108   11.47652084755312

