29
CSD_code = LUBRAB | q = 0 | S = 0 | Stoichiometry = C13H12N2OPd | MND = 4
Pd        4.52026629516451    3.19204150270436   -0.61391476460817
O         5.10937354245501    3.68591721091402   -2.53485448532235
N         3.89011769128939    3.30072162035657    1.29725860095334
N         4.30992846835655    5.21084457892580   -0.48412056366956
C         3.70077894092697    2.34008382371498    2.19120366200398
C         3.26116581886051    2.58285546353819    3.48501056532365
C         3.00343431821105    3.89119320106811    3.86867471743327
C         3.19932491992853    4.90180932800649    2.94784043672779
C         3.64768840150387    4.59367740092413    1.65895902990828
C         3.87452635349159    5.61903042954226    0.66505400207018
C         4.62831086821614    5.85535750552397   -1.63333845261115
C         4.57647039449207    7.24466699186743   -1.84543453646435
C         4.92893563674003    7.76757395271928   -3.06064271840767
C         5.34076079805077    6.91434514563205   -4.09666351912786
C         5.40206686881288    5.55859049073513   -3.92791465590339
C         5.05074445701622    4.95752012063867   -2.68901008345455
C         4.73266744304358    1.16939053772441   -0.79951822227396
H         5.03923116719347    0.91773916792510   -1.82172095766208
H         3.78942831125426    0.64263161235094   -0.58350374301997
H         5.50433183961019    0.79345408154167   -0.10776186489422
H         3.90764051793562    1.33035149150920    1.86169260372069
H         3.01236342432769    5.93238842407801    3.20711924372853
H         4.89306309521158    8.83319637157336   -3.22823529558307
H         5.61533484230421    7.34549674575489   -5.04897825315167
H         2.65782502695556    4.11691370460866    4.86598729305143
H         3.12419990648790    1.76305358591014    4.17090274235437
H         4.25986948374320    7.89216704474838   -1.03966898309744
H         3.67747098631804    6.66019414617822    0.91828395842039
H         5.72028018209831    4.90719431928593   -4.72770575644453

