32
CSD_code = LUBREF | q = 0 | S = 0 | Stoichiometry = C14H14N2PdS | MND = 4
Pd        5.36709553656667    0.77124656096507    1.40937930590847
S         4.72629396005601    2.75710293215408    0.52489914005962
N         6.00988729062468   -1.20304960358190    1.76353087625281
N         5.68468588280482    0.12071807214559   -0.55621915720219
C         6.42609158619613   -1.78660240149279    2.87627027793607
C         6.87596111573906   -3.09928797689512    2.91315655726488
C         6.89132364666660   -3.82579584194215    1.73327191658104
C         6.46830693375647   -3.21566968533991    0.56471486314111
C         6.03111932988299   -1.89033277082295    0.60029733799588
C         5.60478858712209   -1.17146431689047   -0.61152173288122
C         5.09161541841549   -1.97672163810994   -1.77197302218352
C         5.42621131990717    1.03788428133255   -1.54995832441574
C         5.68453116607439    0.81368837575241   -2.90920940336067
C         5.42549165448193    1.78734644118724   -3.84765759080149
C         4.88190361119617    3.00758589052632   -3.45291072023096
C         4.65498366299882    3.26481411436708   -2.12130285897743
C         4.95239414796209    2.31360960034739   -1.13908582078645
C         4.85774787282326    1.31472117659540    3.31084060699308
H         6.38704633784884   -1.18535794226138    3.77628439521433
H         7.19705675083785   -3.53762043311812    3.84407669437524
H         7.23104383432352   -4.85046539912458    1.72023349833774
H         6.49241743920051   -3.75416489620155   -0.36887692935423
H         4.42717413453349   -1.36761945205902   -2.38233835198734
H         5.90755758593873   -2.33520204639775   -2.40068315339418
H         4.53916673932698   -2.84072731014461   -1.40642265709361
H         6.15868381629789   -0.10623730626571   -3.21467519799250
H         5.64929967156079    1.60380617400912   -4.88764358878615
H         4.66354170664145    3.76320134104652   -4.19268208570448
H         4.27152584651397    4.22080888304729   -1.79883566743464
H         5.81182703919763    1.54324386713468    3.81663470246061
H         4.36015158405945    0.48043138089005    3.82620168885149
H         4.21757479044828    2.20010992914736    3.36170440121340

