96
CSD_code = LUBSOQ | q = 0 | S = 0 | Stoichiometry = C40H50ClCoN2O2 | MND = 5
Co        3.33481970041054    2.73969499907431    3.87269962438441
Cl        3.13171472698765    2.01914720615395    1.87740017031516
O         4.16042443836881    4.29102335976592    3.46366629005772
N         5.03514547147582    2.12862741916328    4.16556152478086
C         5.45305310455513    4.26993660152281    3.48154221107714
N         1.67762484149864    3.50584154142456    4.00945960104892
O         2.55173267504827    1.33809913517495    4.69570102026223
C         6.00652567246297    3.01955734852338    3.89684375293454
C         7.39658489549716    2.82005168218776    3.94233078552464
H         7.76737374185532    1.84950081021001    4.22541222002108
C         8.22946059965428    3.85817167463532    3.61033036771341
C         7.66496570916973    5.09807783216061    3.22714429604885
H         8.34544639635450    5.89257896518498    2.97362008383570
C         6.31617487239732    5.34352930549634    3.14273915678424
C         5.72459971925425    6.66662394694630    2.68902077218122
C         4.76861084757134    7.19054016380679    3.76936021633263
H         4.33495865728592    8.13786089593802    3.45639770059597
H         5.30282299685622    7.34517844200863    4.70527778217229
H         3.96003823279165    6.48631134197680    3.93876434338191
C         6.79180127597176    7.73314882850019    2.42995197437845
H         6.30579959882121    8.65835013415891    2.12784459568197
H         7.46327298472928    7.43212468345166    1.62911502437440
H         7.37169224622427    7.93531186380772    3.32803208707528
C         4.94872511128991    6.41924189400887    1.38871462683378
H         4.47957196245438    7.34115429441761    1.05216811756028
H         4.17523000984784    5.67488836906245    1.54731455918178
H         5.62040142281988    6.06346295481841    0.60996319488282
C         9.74443905072576    3.72857638200498    3.62304393412747
C        10.20879465844321    2.33807024229796    4.06508406204089
H         9.86649426997177    2.11241573581916    5.07230461965259
H        11.29623115526136    2.30167155142677    4.06334979218507
H         9.84601134865142    1.57072270243878    3.38567877913670
C        10.27958222122357    3.98348716338621    2.20673360732461
H        10.04249197149791    4.98693020427762    1.86489952791309
H         9.84244867786598    3.27331298827087    1.50840648639551
H        11.36086862333701    3.86487103667057    2.18964650822049
C        10.33374396260881    4.75958491427131    4.59643057514630
H        10.09711265010182    5.77587026094309    4.29480255359745
H        11.41646876162808    4.66032185605410    4.63302127165105
H         9.93863927970236    4.59983030333587    5.59739302084050
C         5.36278883537345    0.85168497526170    4.63727651841798
C         4.98229923470948   -0.27929633206396    3.91767027072097
H         4.47105041503865   -0.15269020610306    2.97563941878210
C         5.26826398543529   -1.53815843353615    4.41044762304649
H         4.96996984847425   -2.40945153530012    3.84665859983061
C         5.93067447595509   -1.68611106328039    5.61784308832125
H         6.14707062988083   -2.67173606723116    6.00207750861906
C         6.31264584722882   -0.56361161081914    6.33456629780396
H         6.82551064974354   -0.67166338382756    7.27925659485467
C         6.03486993983679    0.69999531491112    5.85082358618306
H         6.31243689244988    1.57968604790759    6.41464955691581
C         1.28404098885403    1.44806236625425    4.92512185801940
C         0.73337427494858    2.71023768986031    4.54337211300924
C        -0.63681187767168    2.98084691096224    4.69670920123271
H        -1.01356858027996    3.93190830399514    4.36039003555979
C        -1.44689982869934    2.02265755737255    5.25107069072833
C        -0.88017241706884    0.78852896493824    5.64939628174836
H        -1.54224781568147    0.05842734594944    6.08204829889591
C         0.44584418405696    0.46096009513464    5.50425463300054
C         1.03354915729164   -0.88196734894685    5.90126087275290
C         1.55623509318417   -1.56758123427135    4.63218739682948
H         2.29625532573241   -0.94208096410806    4.14372672228166
H         0.73909970254902   -1.74868685785181    3.93673780202267
H         2.01863112554481   -2.51929066940989    4.88475538122517
C         0.00839256946587   -1.80122773243337    6.57016619989973
H         0.49278892249910   -2.73552952434388    6.84575762792868
H        -0.80999861190182   -2.03659055808828    5.89365947096864
H        -0.39236041634202   -1.35007464771159    7.47544352069468
C         2.19310625268853   -0.65576797283388    6.88104608939882
H         2.97232987006710   -0.05727648815798    6.41942543408977
H         2.62555158524843   -1.60985543858081    7.17453405313121
H         1.83950631962821   -0.14471570990742    7.77494862602100
C        -2.94159858087060    2.22567103856874    5.44290374763461
C        -3.40688052594724    3.61083684142520    4.98524042307064
H        -3.21910365317343    3.75586537304379    3.92422535808159
H        -2.90681183960102    4.39701240087981    5.54598482183464
H        -4.47758764373219    3.70686352664774    5.15306761164180
C        -3.28891487076682    2.07384904457802    6.93090144849342
H        -3.05117985963883    1.07987725864517    7.29873689250778
H        -4.35213954456344    2.24599892159655    7.08371933334104
H        -2.73367118460078    2.79877655474122    7.52230004340927
C        -3.69674026244652    1.17155394934261    4.62077884044920
H        -3.45709810591707    0.16380553142871    4.94789788978524
H        -3.43493864262868    1.25963561382132    3.56871705660892
H        -4.76993437336618    1.31687147845439    4.72381950512805
C         1.35845182619196    4.81137563058163    3.61755942853042
C         0.90077400971322    5.73679786937971    4.55655241189694
H         0.78165852253584    5.42962310711489    5.58625797618470
C         0.63477092790502    7.03694327714991    4.17368876563835
H         0.28986318896729    7.74909625478852    4.90923873471394
C         0.81643723052592    7.42914201691462    2.85731678690813
H         0.60991338237113    8.44754338348079    2.56383234080673
C         1.26513966738192    6.51110562856464    1.92222150058973
H         1.40518215919479    6.81046327647655    0.89424160402761
C         1.53683545641976    5.20824971794744    2.29373459981890
H         1.88164759514447    4.48360947590690    1.57207066830732

