49
CSD_code = LUBTOT | q = 1 | S = 0 | Stoichiometry = C23H16N6O3Re(1+) | MND = 6
Re        3.10051089771093    2.17510630733374    9.95327082410146
C         1.67841343253977    1.14818507015269   10.82940026338819
C         4.49148093602897    1.32852325134184   11.03362272825270
C         2.95190747782904    3.58453051001639   11.29694639813187
O         0.83030984602391    0.53888113842889   11.28265467813264
O         5.33189397244270    0.82248520139324   11.61071655371536
O         2.95342416852193    4.39773404885708   12.10071549451858
N         1.67862888071505    2.97043548074621    8.51403944427284
N         1.00281758297440    2.05943292092460    7.81516201285196
N         0.30750086982392    2.60590959375312    6.92059556645821
N         0.50121341260437    3.92106239983914    6.99015142273896
C        -0.16610261902262    4.84621900732562    6.12491696247555
H        -1.14810160004269    4.44199102438349    5.88420521568347
H         0.39580006220318    4.97491092666851    5.19813945660315
H        -0.26615000533083    5.80780321917660    6.62596764120645
C         1.36971481876060    4.15425713606550    7.99764902035273
C         1.87410193679370    5.45537623064326    8.41227762730558
C         2.60243678976540    6.23788810528628    7.51944614077779
H         2.78613025245207    5.88636257025500    6.51349740056473
C         3.10859724788546    7.45547626084164    7.93536678360329
H         3.67538472341699    8.06117708870960    7.24538987816553
C         2.88245999075293    7.89776132797289    9.22941080743918
H         3.27688434250929    8.85004459399208    9.54737453929593
C         2.14427422691178    7.12518845568005   10.11187565601042
H         1.95934427427192    7.47263685660073   11.11574106539895
C         1.63928079484663    5.90220690935909    9.70956350913986
H         1.04589513552756    5.30159265273670   10.38214890651659
N         4.52460492391300    3.21192897950645    8.69856755566989
N         3.44881343489193    0.77502290334535    8.34433550770794
C         4.80512990072202    2.56301836111008    7.54528819128160
C         5.63390623857394    3.11209485231391    6.54402660753910
C         6.18140110992976    4.38450273009368    6.77968478220889
H         6.82177881493789    4.83612493342441    6.03754921623815
C         5.89403445579536    5.02435851269159    7.96176584403335
H         6.30104573757461    5.99683086250753    8.18494465439481
C         5.06275087293189    4.40263438880439    8.89494531153585
H         4.83237743414564    4.89334395511513    9.83099786009486
C         5.88048482198045    2.36215199447248    5.35792779463745
H         6.51664019977010    2.80064369234986    4.60458888948322
C         4.23270653311549    1.26165505997778    7.35821166088865
C         4.50535837643018    0.54353924583264    6.17541485158513
C         3.92944845094753   -0.73154908637993    6.04370030971837
H         4.11408751775371   -1.31132421795502    5.15235653876692
C         3.14161846490167   -1.21330358189069    7.06104771499513
H         2.68402705618503   -2.18697625605590    6.99955655191904
C         2.92540466145647   -0.42620878377803    8.19468187554613
H         2.30343820019638   -0.79032860763950    9.00063679031307
C         5.34053059158298    1.13164251091797    5.18205201630382
H         5.53546035334772    0.56571926275579    4.28417347803453

