55
CSD_code = LUBVIP | q = 1 | S = 0 | Stoichiometry = C25H18N6O5Re(1+) | MND = 6
Re       13.14981997458148    5.57664513921138    2.15278892984286
C        14.25298362349097    7.00413234272522    1.37894247536361
O        14.87820111230855    7.81460473549008    0.88461237131535
C        11.90426848168488    6.86835630754960    2.92533355789484
O        11.13699039016423    7.59620344155854    3.34545598539847
C        14.23539638019924    5.61125287261291    3.77653635588775
O        14.85172666939316    5.60557379676464    4.73882104361462
N        11.89940093813432    3.90783393264064    2.71710840898890
C        11.16591882417100    3.40996071265500    1.69563385871866
C        10.37544472188898    2.24844594831856    1.81793881350553
C        10.34408723420450    1.61352937461795    3.07099999862168
H         9.75001343291189    0.72233719639640    3.20308951024236
C        11.05610473456128    2.16029402428181    4.11176629690406
H        11.04041088252247    1.72050951733582    5.09563124329995
C        11.82199220507888    3.30647448160873    3.89142508883831
H        12.38510768330900    3.74770778592488    4.70220680880562
C         9.64183267155058    1.78767927643764    0.68660605518127
H         9.05145108250598    0.89111516066210    0.79664434978468
N        11.92715047461535    5.25655535046331    0.39906406868284
C        11.18496556681998    4.12854703106743    0.45554288483466
C        10.42680232913994    3.65843950726420   -0.63675168338789
C        11.21262381616666    5.56323761229312   -1.85707709465499
H        11.25952976300345    6.17291901087342   -2.74436642860382
C        10.45953098139864    4.41414021521831   -1.82146181022748
H         9.89286967794591    4.08690010904608   -2.67971859845896
C        11.93332200064113    5.94910815147199   -0.72394100597346
H        12.53433819019792    6.84784128427458   -0.73839672779542
C         9.66744286933626    2.46176816895198   -0.48904963090933
H         9.10049766665473    2.11375421204446   -1.33878973959759
N        14.36223110034027    4.10752860712565    1.08386040065478
N        14.81109680499175    4.56744643369241   -0.08314183325075
N        15.40818070406761    3.66429829958191   -0.72196903728896
N        15.37235083685200    2.54874081970830    0.00218959084365
C        16.00432736734489    1.33821906734123   -0.42917619731727
H        15.34091122809707    0.77525056934534   -1.08807351693498
H        16.26434683281310    0.73007444783461    0.43564242598451
H        16.90192821081671    1.60286734033770   -0.98642085667163
C        14.70764030997539    2.82596461859077    1.14678317436727
C        14.39792037787160    1.88631690386335    2.21278725042436
C        14.70525625473424    2.21412087952049    3.53219212981409
H        15.22725097145093    3.13392326702567    3.74721944932219
C        14.35073098727333    1.35085929640623    4.54885114665955
H        14.57009259527493    1.58835923350105    5.57832278069356
C        13.69408146671481    0.15833100819278    4.25778721687210
C        13.40667791652714   -0.17762166395798    2.93924036628113
H        12.90548260084090   -1.10707860168665    2.72130620039518
C        13.75596555209763    0.68409404284081    1.91778800796525
H        13.50638057915249    0.43722197661296    0.89579943473468
C        13.27015455269373   -0.70848002996936    5.39907349086740
O        13.11354633682667   -0.28737427615356    6.51599118601961
C        12.68334348057449   -2.87358699223941    6.06089813525025
H        13.44331990275701   -2.90177811904868    6.84324490886257
H        12.58278964145004   -3.84729248129306    5.58976795043939
H        11.73662645817756   -2.55747905772264    6.50245481725418
O        13.07304255170763   -1.97089228922849    5.02898599174409

