57
CSD_code = LUBXOV | q = 0 | S = 0 | Stoichiometry = C15H33NO3P3SiV | MND = 6
V        12.37990783272331    2.20683885418700   10.43852042142496
P        13.94875620684079    2.76750214802652   12.02098825726253
P        14.03020243838299    2.64359649243592    8.85599713516235
P        11.84885156205622    4.44196851093088   10.30393451034366
Si       14.82802957557612    5.21262148063835   10.37673463517179
O        10.25489079801488    1.52994794451091   12.13154966537486
O        12.61043100991748   -0.70789844688498   10.74905625911159
O        10.32361237443661    1.10768039116099    8.64795630430532
N        11.17088897611798    1.86310208770734   11.45067700880265
C        13.35622095863186    2.57115299838212   13.74492858306426
C        15.43479078876893    1.68927304574179   12.14685688050529
C        14.76605279009788    4.42936645852037   12.11789852762581
C        13.42129841602488    3.20439665996363    7.21541521465003
C        15.00213133451980    1.19524570387424    8.27794649210113
C        15.38592518022608    3.87119884043780    9.13169879750389
C        11.11446552371646    5.12216749461941   11.84313782568833
C        10.47572069497503    4.88962636689875    9.16603296435552
C        13.06663562965173    5.77824121194252    9.90080050380849
C        16.04598158791063    6.69628656261453   10.34374437114879
C        15.88332253357748    7.47898673641604    9.04527805531705
C        15.76541461451309    7.62661323531822   11.51892426290176
C        17.48321536885071    6.19642638382143   10.44212272369339
C        12.67137054398543    0.43642617103135   10.58452368650789
C        11.18405313271435    1.61998721559364    9.22870113974870
H        14.12450236346387    2.84841196575788   14.47033155630102
H        12.46132183874355    3.17411596754608   13.89736730013497
H        13.08162565844761    1.52219772822373   13.87200941510646
H        15.08589983744950    0.65565218391616   12.18032810611330
H        16.07217003789178    1.81612823269967   11.27286569089144
H        16.00678868053951    1.91349599679952   13.04968122358928
H        14.16180115949055    5.05301444795975   12.77924915814171
H        15.75307682202850    4.31554934372948   12.57056668929223
H        12.98717708572074    4.19972430711488    7.29786639599187
H        14.22928360646099    3.21764616028889    6.48083123261600
H        12.64399637734646    2.50814701422677    6.89580707903627
H        14.29784756933972    0.48215192638105    7.84561307618029
H        15.74659489447842    1.48276539174120    7.53218525787256
H        15.49094879160424    0.71733377540469    9.12678660815500
H        16.23850257649406    3.32650541710972    9.54161027653305
H        15.68510935250759    4.28622142117079    8.16687815058194
H        11.86619343217992    5.17312249410432   12.62942872060961
H        10.69304644822949    6.11521821195116   11.67297606814139
H        10.32503989261255    4.43635927415482   12.15611179542903
H        10.25539769793806    5.95899948812699    9.19839320039669
H        10.72404367997484    4.59141808956792    8.14750280227149
H         9.60055797541045    4.31909714012960    9.48278481409149
H        13.01327202512438    5.95730639131301    8.82532292992037
H        12.76321948284586    6.69526372638953   10.40996259610654
H        16.58957032094884    8.30778047818026    9.00925916596119
H        16.06721012952697    6.84401511294359    8.18188747846054
H        14.87973558639440    7.88853857589704    8.96325649007819
H        15.91398271445164    7.11162647696508   12.46460701582360
H        16.43557873909501    8.48519885653693   11.49357111189416
H        14.74377465078680    7.99740363593872   11.48628293843451
H        17.63439947800570    5.62240150187441   11.35317026897179
H        17.73299464010242    5.56545987546189    9.59288005038035
H        18.17816658213610    7.03537484250668   10.45440111091109

