81
CSD_code = LUBYAK | q = 0 | S = 0 | Stoichiometry = C30H42N4NiS4 | MND = 4
Ni        8.14844034813367   11.05433127632265   16.39603597738207
S         8.10855256505103    9.22878775544839   15.11010374320708
S         9.64093101753498    8.77981816105598   12.65690426826773
N         9.29586242109608   11.81897302936822   15.04011662073591
N         9.74917921837278   11.01959229628118   14.04500137597258
C        13.36765301896198   15.64112787221070   11.39805849912891
H        12.83323466972268   16.16122499674994   10.60498653389343
H        13.93264771467813   16.38594442337346   11.95887212332851
H        14.07159130193986   14.94329339830326   10.95142172666843
C        12.40974928080363   14.93662829004705   12.30607345832497
C        12.59292302914801   13.60571094589073   12.66121539299991
H        13.44754379655940   13.06653415100513   12.27643497541714
C        11.70803228787219   12.96263472527907   13.50371565546521
H        11.87471902522568   11.93451294663991   13.78012664707338
C        10.61730332250082   13.64753749681516   14.04217267798195
C        10.45177874019420   14.99808895075409   13.71099380411047
H         9.62015466761699   15.54633004930022   14.12917332624478
C        11.32079718382652   15.62042935785604   12.84207942105343
H        11.16866882515468   16.65838329244119   12.58226685219649
C         9.68490300042381   13.05854473611633   14.98375776341665
H         9.25153924734195   13.74854300867883   15.69665575711454
C         9.23343138247688    9.83701284625874   13.97430900795504
C        10.70890388202498    9.82382742841041   11.60470909662354
H        11.54428564018170   10.15512731957489   12.21817637609577
H        11.07032881562312    9.14073794045517   10.83588606669719
C         9.96814656347462   11.00152279275368   10.99629496698815
H         9.63281554144919   11.65657020882037   11.80180207359665
H         9.08861447971073   10.64302286675653   10.45784915597590
C        10.87167333292219   11.79220565159930   10.05233519606133
H        11.82489648754338   11.98577320116424   10.54839606726421
H        11.07529031393863   11.20246179390820    9.15559965129358
C        10.24119443656952   13.12592337380067    9.66207023537360
H         9.27199510100265   12.94822719387280    9.19102161880897
H        10.06903246094734   13.71287657616489   10.56755006046668
C        11.12908185735097   13.92397430358258    8.71127163240023
H        11.25777240953331   13.36782737414891    7.78003922660689
H        12.11547745146356   14.04530478159854    9.16299060600067
C        10.53853393351779   15.29469417835021    8.40633929080438
H         9.56605960597766   15.19310498280402    7.93010889591636
H        11.18953256569747   15.85588195009496    7.73969774767190
H        10.40844260565365   15.86408914313220    9.32443630374198
S         8.18700163719326   12.88033732827532   17.68124721272194
S         6.65361315476660   13.32950084298757   20.13386355504642
N         7.00126879223407   10.28950679630973   17.75218985426730
N         6.54704634148675   11.08911939545869   18.74669867041490
C         2.93139332496156    6.46521296127097   21.39448130668139
H         3.46605056366065    5.94496277688178   22.18741554869722
H         2.36666779059445    5.72048973286267   20.83308298061958
H         2.22726263208195    7.16291706228157   21.84123829342155
C         3.88924780941084    7.17027025681306   20.48671706224808
C         3.70533061908452    8.50100324301038   20.13128062853956
H         2.85010541711963    9.03958080749682   20.51553150108832
C         4.59000665165764    9.14448302327869   19.28887741271109
H         4.42260582890717   10.17237772522859   19.01207219290435
C         5.68139092234446    8.46021031758699   18.75091620697603
C         5.84773955313673    7.10985178744922   19.08243646806762
H         6.67989677488181    6.56212738902896   18.66463079147505
C         4.97880724021879    6.48707925052531   19.95114543583868
H         5.13145346823102    5.44928309310135   20.21122177232609
C         6.61343443129733    9.04959074348628   17.80923587262218
H         7.04752342473001    8.35968859118311   17.09667739280015
C         7.06199715772891   12.27207850963715   18.81690275984989
C         5.58619644133879   12.28512748987586   21.18625407911414
H         4.75117937291820   11.95298329610025   20.57274548423501
H         5.22411898253656   12.96826085946887   21.95472839561466
C         6.32769790937029   11.10821240647520   21.79527288138135
H         6.66368025919032   10.45312203341695   20.99006684098167
H         7.20686249143476   11.46756793641419   22.33375113761151
C         5.42460237979168   10.31718553822867   22.73935577174078
H         4.47149805428090   10.12294558866101   22.24329360540321
H         5.22058339055634   10.90699302941911   23.63597351707982
C         6.05589458842783    8.98390674120097   23.12983336331525
H         7.02504173579341    9.16219575879482   23.60088180169988
H         6.22839979601752    8.39692750468745   22.22438571168780
C         5.16837814963307    8.18554115100557   24.08082926271739
H         5.03989083864557    8.74164638595505   25.01224525692043
H         4.18172378204015    8.06403097787475   23.62929663810150
C         5.75997467429971    6.81486137222668   24.38513721508354
H         6.73294702713366    6.91642110859605   24.86084239983079
H         5.10925824002663    6.25362841770269   25.05218608232167
H         5.88921480160509    6.24553370255179   23.46670775952818

