25
CSD_code = LUCBOA | q = 0 | S = 0 | Stoichiometry = C11H8Cl2N2OZn | MND = 4
Zn        7.56495665030029    1.87819678232836    4.57661207883288
Cl        6.70724548345801    2.91285577417454    6.42994873399339
Cl        7.62740749767322    2.12187770506373    2.42728376440094
N         9.37427351860378    1.61442604818048    5.54098815278788
N         6.96180218878298    0.03897586544530    5.30396818198952
C        10.57904884874230    1.95375841039394    5.09762345345643
C        11.66494000389436    2.13597333222476    5.93666657766341
C        11.48130389609599    1.96683336117236    7.30058812753872
C        10.22950340924234    1.59912329804116    7.75970927858309
C         9.18924959379058    1.42885014922338    6.84897615419416
C         7.86484774702435    0.99062239689996    7.42247777289492
O         7.67979255694840    1.09355707179899    8.62151398436156
C         7.02407701005806    0.01580475497112    6.63629468788112
C         6.33607433404423   -0.94213419077710    7.37775530531673
C         5.57347571154302   -1.89104747889957    6.72126694041678
C         5.53502821425303   -1.86884645994500    5.33533015169609
C         6.24152048504702   -0.88036209654824    4.67191975245724
H        10.66312722641939    2.08680953450856    4.02758598638245
H        12.62283174529953    2.41710931490908    5.52953225285151
H        12.29618848641255    2.11860087065847    7.99227981917182
H        10.02169964665427    1.45323568517311    8.80826009069738
H         6.40695051890976   -0.90522351657419    8.45364274030788
H         5.02096829424732   -2.63211738245922    7.27901343497222
H         4.95912914692655   -2.58996585609427    4.77792741644406
H         6.23355778562956   -0.80781337387139    3.59283516070786

