45
CSD_code = LUCCOB | q = 0 | S = 0 | Stoichiometry = C16H18N4NiO6 | MND = 6
Ni        3.88361385573473    4.38068385401886    4.60615350233745
O         6.07375944180079    5.40828211723182    4.94203702985480
H         6.51569361858172    4.57111621735400    4.74855517693650
H         6.01149273133290    5.85997300269901    4.09029599447352
O         4.90067738118461    2.91547433134293    4.02957594231673
O         5.13032526548929    0.95306549230270    3.06116313813885
O         4.02377506048198    5.14050855486090    2.90358417911711
O         3.47582816086812    5.34027529583172    0.78455672925085
O         0.13308947581612    1.62227904466306    2.12115897183756
N         3.76353503587272    3.72307845764580    6.37556881343464
N         2.94813307633336    5.87785746661250    5.28456907904741
N         2.23617787277898    3.09509713185779    3.36004511601288
N        -1.29546342666843    2.04193551313686    3.80192690082751
H        -2.02203050863198    1.50864646792719    3.35319278395503
H        -1.49796297095889    2.48614237641771    4.67866424389246
C         4.27518308987780    2.59333724128312    6.85151588811980
H         4.86718648334396    2.00590935314564    6.16239700497891
C         4.07879347710049    2.17414873136263    8.15606285655437
H         4.51816852558263    1.25070696754789    8.49630472961623
C         3.31494746823294    2.96232438663791    9.00578580570532
H         3.13795525197648    2.66354091754297   10.02759703087955
C         2.79124488393311    4.14577119713742    8.52007485733271
H         2.20250168643726    4.78238270501287    9.16033540878811
C         3.03846090613806    4.50999302929895    7.19791074510913
C         2.58113778798855    5.74895427540843    6.57632402377748
C         1.85538008534636    6.74465758665771    7.22747039709328
H         1.56644264546326    6.62382193292119    8.25884965360353
C         1.51884204411298    7.89590930185839    6.54035073990857
H         0.96210602793289    8.68148747440830    7.02784841837614
C         1.91946038295958    8.02332278587508    5.21745120412103
H         1.68979097582961    8.90915371525798    4.64811564227574
C         2.63006785583138    6.98986142592716    4.63162231540613
H         2.96151683634141    7.05307279253922    3.60351865042601
C         2.89993906549170    1.79403230846607    3.26682769746033
H         2.56309284688177    1.15281900048510    4.08811888185023
H         2.68241125515433    1.27862573305190    2.32642571592253
C         4.44481202487711    1.88629679906094    3.42730279374357
C         2.20139632077378    3.77807776192454    2.06429266801098
H         2.25135629905174    3.07584052322818    1.22749865461936
H         1.27104809393152    4.34361921083928    1.96141893528719
C         3.33935703533139    4.82115184762847    1.87455053765055
C         0.91553043828053    2.99738163531177    3.97060934825130
H         1.01696600372605    2.56235934991485    4.97180958884787
H         0.50000058889489    4.00560265831858    4.08142776347130
C        -0.09414045683759    2.14902202804751    3.18073444138017

