78
CSD_code = LUCJEY | q = 1 | S = 0 | Stoichiometry = C34H34BN8Ni(1+) | MND = 5
Ni        6.68711990687270    9.93972633122307    4.54967313576950
N         6.92301411417140    8.61054181135126    3.21176216511860
N         5.95424354832229    8.39444784001452    2.31410282736747
N         5.03974215363024    9.11044042596512    4.88979876069962
N         4.16913727808634    9.03470435353442    3.86984864592918
N         5.69278510672034   11.31760291295218    3.00586793346857
N         4.92890694957468   10.63993264054697    2.13181455450896
N         6.62329836946485   10.87898046493057    6.13890171585072
N         8.26999202804178   10.71895648669437    4.11037645179568
C         7.97726467300792    7.84395905220605    2.89898415869371
C         7.65386835130981    7.11161222091237    1.75206467724609
C         6.36463508992219    7.48485270825324    1.41460476210997
C         5.53315154432732    7.00357543850956    0.28467237038749
C         4.37612752015947    8.85228834613277    6.02579048697113
C         3.03506758594944    8.62678704721845    5.71426037652375
C         2.94455383761189    8.74679229487741    4.33783381457418
C         1.74351920809822    8.60040590715553    3.48061568198056
C         5.89975989334263   12.53162730363669    2.49213740008122
C         5.24733277289938   12.63287237345546    1.25641589970550
C         4.63399451250490   11.41032109022741    1.06564673064686
C         3.80005222772444   10.95787984551529   -0.07608072948931
C         6.55586519034690   11.47974815666709    7.11336922795161
C         6.46310715645393   12.21610474292952    8.32487939717591
C         9.13971823919133   11.35330448847422    3.71444736711460
C        10.22856787348987   12.12772586029898    3.23159214147844
C         9.21363108876419    7.80050357603781    3.66989901500206
C        10.41315673189344    7.44449069620527    3.05459363497134
C        11.58612283385898    7.39702016113860    3.78444863983296
C        11.58200475623528    7.70262988721265    5.13588867021714
C        10.39494682665057    8.05594319019105    5.75717024543589
C         9.22022903290671    8.10186089436178    5.03168871098976
C         5.00566451621392    8.73434177807679    7.33810314526017
C         4.40422090349321    9.28327941051318    8.46753916678801
C         5.00067211464961    9.14364418776631    9.70821566889857
C         6.19801059509195    8.45645753659006    9.83426863661042
C         6.79139313429321    7.89227717660645    8.71631919748298
C         6.19619994265445    8.02430276884138    7.47574434546550
C         6.69636713249060   13.55245128763891    3.16272437494736
C         7.57833538599508   14.34726230565204    2.43382113630358
C         8.34231535126473   15.30832931849063    3.07183502693043
C         8.23339071759227   15.48929286243742    4.44179739284245
C         7.34526036136640   14.71378520333620    5.16936107580649
C         6.57808408518030   13.75467674957142    4.53494073993620
B         4.61849623353911    9.16616715937011    2.40130616240737
H         3.81849800714388    8.72833869752651    1.66137108005190
H         8.26349302484152    6.38632338954861    1.25473788962795
H         5.26164084943545    7.82692758718316   -0.37272091324979
H         4.61514733323823    6.54768839164291    0.64987635416338
H         6.08851652559057    6.26579408978776   -0.28708597090771
H        10.42550870305183    7.21459634265017    2.00035543477444
H        12.50843141692018    7.11810334187462    3.29795470402432
H        12.49892585285195    7.65971740206181    5.70338644379622
H        10.38434181289565    8.28673206308859    6.81221571983109
H         8.28741280193825    8.35920205398929    5.53156494587948
H         2.25065504736696    8.37942030829201    6.39902640270866
H         1.59044948814332    9.49485137029007    2.88054506151809
H         0.86954497741525    8.43786541776746    4.10470553124400
H         1.85266743754766    7.75440612097271    2.80469940945361
H         3.47310315813067    9.82112723660031    8.36705663452284
H         4.52596817960061    9.56517299214591   10.58221712783759
H         6.65797231279821    8.34695055221851   10.80455264147562
H         7.71022669848117    7.33434134279376    8.81569959559905
H         6.62389796949314    7.54115904842618    6.60839800732901
H         5.20762951148299   13.48760481019565    0.61340215644587
H         3.63692143437002   11.78731887448391   -0.75814794972071
H         4.29259156724999   10.15265164206962   -0.61883692817246
H         2.83608577262765   10.59086736842365    0.26979574448883
H         7.66507650861512   14.20448703153716    1.36666590727840
H         9.02008455587632   15.92456178359348    2.49918743230680
H         8.82739331862376   16.24260623229613    4.93664253188656
H         7.24168276376373   14.87476183749683    6.23284959027832
H         5.85551739023723   13.17043694987161    5.08415439188238
H         6.23376777790361   11.53300146940787    9.14380771984239
H         5.66932993639773   12.95901304551008    8.24262336977640
H         7.40935950111596   12.71865607949369    8.52441780193367
H        11.09580375211360   11.98885006701816    3.87681059257444
H         9.94154635749329   13.18105814548066    3.22172458231880
H        10.47988137990951   11.81290062059927    2.21890201737694

