121
CSD_code = LUCLUQ | q = 1 | S = 0 | Stoichiometry = C57H54BN6NiP2(1+) | MND = 4
Ni       23.97916920836437    7.59121926288372   -0.99106245484810
P        24.85585474405078    8.05044507743689   -2.95414705983880
P        25.92582924984542    6.81467082325770   -0.21070690931840
N        22.82698324807215    7.43815052069758    0.60525775797452
N        22.20459580164364    8.61824677721731    0.81380432453120
N        22.26087336793412    7.68278893094017   -1.84980454429496
N        21.48640046398810    8.72336601533462   -1.54099672255070
N        24.32496638077475    9.94906355198645   -0.43647563782651
N        23.07927222592591   10.44760934976191   -0.61360288139500
C        26.52440142352931    8.83045418547405   -2.89452022610958
C        27.58095819486552    7.93091817853141   -2.26399365962870
C        27.38915101351995    7.79371960905644   -0.75426979502477
C        22.73051800937441    6.72381754346685    1.73150273166002
C        22.08119442676112    7.49064529093236    2.70127703255417
C        21.76114687877086    8.68356605190178    2.08029626519705
C        21.06488164042582    9.85923314806433    2.65860748834591
C        23.03354547403395    5.30075576935932    1.88369510990689
C        23.83400338298375    4.83976003175865    2.92418272108816
C        24.01265046974855    3.48133233785489    3.11236023303353
C        23.37421703296993    2.57150370068478    2.28506868354041
C        22.55410028331856    3.02288892627167    1.26372695304491
C        22.38294622269822    4.38101785819444    1.06161636386105
C        21.62772769414877    6.92902044212174   -2.75392299028462
C        20.40271797530029    7.53941835082319   -3.04715875181744
C        20.34793262299423    8.67125240606797   -2.25499577569540
C        19.26379180983051    9.67918237925651   -2.16608171405863
C        22.12483592204101    5.64485155663984   -3.22439045030272
C        21.72319069463533    5.12300512109976   -4.45328402071627
C        22.14036343792691    3.86545114909949   -4.84412698312400
C        22.94244371115049    3.10523399315335   -4.00822515445702
C        23.34967758431003    3.61772736052264   -2.78785180070171
C        22.95623688285787    4.88537554678538   -2.40441529750472
C        25.15287920297044   11.00260078412641   -0.44274462487175
C        24.42650331720592   12.17933729717396   -0.67250541650218
C        23.10961607433209   11.78495438189571   -0.76684994409133
C        21.91177403678296   12.62281353625252   -1.02033055710488
C        26.59569955557208   11.05189923694777   -0.17543414909478
C        27.44345615373376   11.66475253523582   -1.09827035819613
C        28.79289170677755   11.80305557548362   -0.83084066643103
C        29.31436439440582   11.35299113690119    0.37078330416118
C        28.47478361333132   10.77843531995313    1.30990928190601
C        27.12485239813121   10.63284954173916    1.04302119161024
C        25.22181674976227    6.76775009627269   -4.19867902295168
C        25.27322988712932    7.07678116204351   -5.55525822739331
C        25.65186360190760    6.11112691521004   -6.46930829569073
C        26.00382797853824    4.84037299214526   -6.04224718183574
C        25.98627660303605    4.53887714741772   -4.69188994737992
C        25.59523879574265    5.49889941478189   -3.77644265864610
C        23.86501594159474    9.27210425970987   -3.87250276277504
C        24.04197363616361   10.63816111978509   -3.68250669087190
C        23.21372345814715   11.54662529438207   -4.31763089885832
C        22.19880598519420   11.10351668726516   -5.14813634880230
C        22.02781825652875    9.74461762915772   -5.35859335039919
C        22.85214990913526    8.83435001208537   -4.72507982155671
C        26.47532057267500    5.08885259222160   -0.49034870841616
C        27.71596280159115    4.73362036823493   -1.01467477256882
C        28.05605674482722    3.39900506982518   -1.15258930574415
C        27.17609249439686    2.40228949532755   -0.76512208003780
C        25.94384328308118    2.74760986689937   -0.23632003758128
C        25.59673473950291    4.07961212459091   -0.10846939412243
C        26.13775149827342    6.97287121353538    1.59314195424657
C        25.46327053231627    7.99599050916562    2.25026748284156
C        25.61983754042700    8.17311190639854    3.61308605249712
C        26.45546475487174    7.32989533576892    4.32755043333443
C        27.13456687314430    6.31320218458140    3.67508619001083
C        26.97723077339104    6.12975444539409    2.31273908717798
B        21.84579152290415    9.59693052100563   -0.32972266640605
H        20.92636800537027   10.26588677006602   -0.02359481278800
H        21.85386587755527    7.19185839478039    3.70342697244584
H        20.96729630104270    9.72911270018364    3.73277827634798
H        20.06916798716769    9.96803674351560    2.23164036933845
H        21.62050710783269   10.77276918804069    2.45742964821518
H        24.31271830277207    5.54922450529379    3.58141491663695
H        24.64065593782404    3.13114159644963    3.91735093204315
H        23.50305501771142    1.51203445206483    2.44741798527083
H        22.03879634510674    2.31905826815766    0.62725077689941
H        21.72492904337173    4.73553417244516    0.28149670481182
H        19.64846583101879    7.18572249974895   -3.71888977464635
H        18.82116734771602    9.68410052633366   -1.17169019745971
H        18.48980796279342    9.44523813097365   -2.89145186356412
H        19.64898582910199   10.67645263653773   -2.36817960533973
H        21.08560637339016    5.70561679603906   -5.10138894392950
H        21.82942500050521    3.47042296504598   -5.79927289835836
H        23.24739432142453    2.11444020560463   -4.30817851068894
H        23.97662418365297    3.02898739452538   -2.13481004692245
H        23.27525074573072    5.29770602959722   -1.44604022948444
H        24.82098882877863   13.17318025430159   -0.72643980795812
H        21.22250388706145   12.58567953356637   -0.17883237238986
H        21.38498764293933   12.27309681363371   -1.90672260610809
H        22.21722158670364   13.65402358487230   -1.17430079602454
H        27.04223611958796   12.04388108234917   -2.02854135739735
H        29.43680998774274   12.27480382843119   -1.55772901209480
H        30.36653504046363   11.46749674227759    0.58106910094367
H        28.86728829225152   10.44927165502008    2.26032590550571
H        26.47434577132093   10.20554179450722    1.78864538605645
H        26.79472191827102    9.06211202593173   -3.93050602148278
H        26.46627663457713    9.75856742101573   -2.32879410415292
H        27.57012962379532    6.95447100423442   -2.75626880074857
H        28.56267268458974    8.37990796717782   -2.44061904547471
H        27.26623137919074    8.78596870116515   -0.31585525779463
H        28.27090996022581    7.34443879534767   -0.28687349966489
H        25.01996833511379    8.06904510869434   -5.89963001603731
H        25.67926857039805    6.35443381596280   -7.52063969004611
H        26.29819725520682    4.09201797755606   -6.76162754706534
H        26.27527458970456    3.55798101998007   -4.34628550637894
H        25.57525262325581    5.26301620868377   -2.72317406271940
H        24.82501258161172   11.00213755962067   -3.03744896129694
H        23.36284658497999   12.60401038896895   -4.15955658884507
H        21.54856059533358   11.81303951833075   -5.63648386542109
H        21.24868975646043    9.39272106880860   -6.01761756868965
H        22.72266260118052    7.77660744971424   -4.90215836185921
H        28.43213521357481    5.47942082612405   -1.31877350053589
H        29.02091336918057    3.13850634444987   -1.56116339426158
H        27.45173768628193    1.36455499557167   -0.87279029779062
H        25.25026191347820    1.98316550777962    0.08012070704515
H        24.63638056877066    4.34967533855241    0.29845202324757
H        24.82099606878606    8.65211463649979    1.67856737223223
H        25.08882256116485    8.96604324568021    4.11914119158616
H        26.57592016278429    7.46278004632011    5.39194935519236
H        27.78732266879565    5.65698319263081    4.23062209090053
H        27.50226654901241    5.32805161531615    1.81417928599702

