41
CSD_code = LUCNUT | q = 1 | S = 0 | Stoichiometry = C9H24N3O2P2W(1+) | MND = 6
W         6.31125591226917   22.46884328141186    8.49649963566726
P         7.52315787006852   22.08782187020302   10.57458088627016
P         5.41354862905566   23.20870732633776    6.35020067845543
C         4.61037750166396   22.44818124963161    9.49900242418245
O         3.61207887117932   22.37663530661801   10.05211019592761
N         6.05976719387737   20.76890699931711    8.06180619700800
O         5.89903084392041   19.64853301501041    7.77908941298980
N         6.72101199507557   24.65379181173311    9.16887773587428
H         6.91954771073102   25.30622467877089    8.40717868665775
H         5.82899172846382   24.95384572323020    9.57202322337941
N         8.23296708668641   22.56454814132425    7.22038651619222
H         8.73382710595775   23.45260244129753    7.29412005203814
H         8.87155510953592   21.84078631456030    7.55076394337610
C         7.53736597372174   23.77901009067309   11.31737964309793
H         6.56158963356202   23.94476348214216   11.78384419876060
H         8.31000332771698   23.87081117820100   12.08391951379484
C         7.76112462151281   24.79697682298930   10.20325394045909
H         7.76748082970733   25.81337861006824   10.61942167359226
H         8.73789953139394   24.61963691469793    9.73776063758701
C         9.28939346911660   21.60628726185713   10.63181344948486
H         9.64384392462812   21.60756038876906   11.66234635024134
H         9.89916888642799   22.28968575326735   10.04216395918237
H         9.39016923523021   20.60049779283651   10.22464310280085
C         6.81795327825635   21.06474842220167   11.90078033980993
H         7.36795006432641   21.20462872012804   12.83182182979564
H         6.87074216104778   20.01899594283633   11.59881283973151
H         5.77127294821438   21.33015022755696   12.04029807905258
C         6.92326071611350   23.32447491013665    5.28390994208650
H         6.67968634480254   23.12751364094880    4.23801042068261
H         7.33125350559302   24.33829341138494    5.35502147356934
C         7.94278479717683   22.31291333161219    5.79816656757100
H         7.52992047341781   21.30226504646171    5.71559457998934
H         8.85753258161217   22.36077381008268    5.19227987560889
C         4.55260440558265   24.77944323036932    5.98924756604690
H         5.12223005808879   25.63187216075875    6.35684727480886
H         3.58212615965378   24.76522146114960    6.48416225545647
H         4.40536261124540   24.88203321543402    4.91399509186792
C         4.37529753813989   22.00229181793904    5.47277715405551
H         4.17352413094142   22.33267262957972    4.45333335538232
H         3.43713254630988   21.89699645405291    6.01692492061454
H         4.87120868797611   21.03247511241985    5.45943037685109

