91
CSD_code = LUCQAD | q = 1 | S = 0 | Stoichiometry = C46H38AgN6(1+) | MND = 2
Ag        8.17509033944681   13.96828791260455    3.88837444615380
N        10.59499454041806   14.04406493085280    1.81175834679708
N         9.31308089935878   12.39044795651007    1.27067262622339
N         8.07680727650493    5.47107951712128    0.98708915429484
C         9.42843698846752   13.43743300932530    2.11494423254154
C        11.22460454465483   13.40099643794357    0.76724966008785
C        12.41374187515250   13.63729989213080    0.09130291696935
H        13.05267802964706   14.47108194571107    0.33514809746307
C        12.74739742998428   12.75667178566287   -0.91828663946550
H        13.66357654545781   12.90698481997766   -1.46694993332763
C        11.93035095959280   11.67449082099484   -1.24880241544561
H        12.23573131116558   11.01164772682736   -2.04268296012026
C        10.74386574581629   11.43421987705372   -0.58559340139295
H        10.11801587230256   10.59451551428388   -0.84114801360926
C        10.39835043642043   12.31897851380673    0.42574271972491
C        11.12076113250618   15.22812102547107    2.45748099576368
H        10.81520804064500   16.10964283284179    1.88728199962618
H        12.21427638673355   15.16707024918490    2.42425457368708
C        10.67772409426954   15.33297084819066    3.89621950011011
C        10.93118424709097   14.25319912286812    4.74451723076784
H        11.47000784063518   13.39716190680031    4.35925738446970
C        10.57128452012585   14.29428721032210    6.08080702333832
H        10.81324468747233   13.46906013515246    6.73344295271661
C         9.94592035191910   15.42473997955620    6.58267638205976
H         9.66746415061793   15.47423251781843    7.62429104498736
C         9.72007898577186   16.50805011360161    5.75422441321566
H         9.28304044090033   17.40651003227468    6.16620426050456
C        10.08782721475350   16.49171501455067    4.41016676867812
C         9.91816425531728   17.72758787381574    3.57839242747525
H         9.46083666079537   18.51907274992466    4.16521140206490
H         9.29334111172966   17.53803682343221    2.70742720527595
H        10.88738342822337   18.08548536137915    3.23269646136405
C         8.26509385922645   11.40649119536070    1.31696776577533
H         7.88559896975943   11.22941886815311    0.30661784509084
H         7.45725423433606   11.82283361751075    1.93479837106975
C         8.74916161559096   10.11319533280449    1.92996608703144
C         9.54329569098237   10.14221658746059    3.07107072109557
H         9.80640838156170   11.09908701025570    3.50650455306558
C         9.99184374022353    8.96892604460619    3.65134936107947
H        10.61751050971544    9.00568969895434    4.52986263977926
C         9.63622751953505    7.74598417371596    3.11350540068631
H         9.97351699723049    6.82408518019127    3.56215523632811
C         8.82790101844336    7.70990809160237    1.97911750577585
C         8.39442615225652    8.89307577128370    1.38182574739227
H         7.77551719038733    8.84430112110596    0.49733646544516
C         8.42513159301251    6.46760050361945    1.43021718711647
N         5.75291154782582   14.04355023002460    5.96288688164975
N         7.03611689689157   12.39158764865644    6.50591115580143
N         8.28578095591949    5.47484122065699    6.79473958039153
C         6.92044123993661   13.43807705925030    5.66108277400861
C         5.12305277125197   13.40027798878696    7.00713777135650
C         3.93317362626776   13.63576731235428    7.68206753648721
H         3.29357278777076   14.46875301811598    7.43725131849805
C         3.59968354521668   12.75538952110701    8.69194295416493
H         2.68304973997941   12.90518087452576    9.23999703752191
C         4.41748568526546   11.67411953214890    9.02354912995937
H         4.11218466467846   11.01139040168965    9.81755851275651
C         5.60466208836439   11.43461032317284    8.36128186484182
H         6.23104329041329   10.59553936091181    8.61760708278824
C         5.95012098444354   12.31929046738229    7.34987050407453
C         5.22630871754301   15.22682891168398    5.31640764042354
H         5.52891253425143   16.10874211928251    5.88760103421955
H         4.13281585486772   15.16365853131845    5.34724829975152
C         5.67204156790599   15.33308379991504    3.87859873470728
C         5.42000447318824   14.25411097770134    3.02883922460474
H         4.88068730985260   13.39763751120234    3.41244483855697
C         5.78215485815816   14.29644741886255    1.69321351051496
H         5.54139354543271   13.47178017157151    1.03943197302885
C         6.40810217500882   15.42748937382538    1.19341642011064
H         6.68793557081528   15.47815627064327    0.15222791899507
C         6.63279344214063   16.50989896415894    2.02335449899538
H         7.07038432997540   17.40879540975985    1.61289744761355
C         6.26316974969080   16.49216281350727    3.36687796181817
C         6.43251313292221   17.72690868361584    4.20041267266948
H         6.89103833554741   18.51883910402664    3.61514470777648
H         7.05620185260033   17.53584168743387    5.07186744457382
H         5.46311258054417   18.08501727005429    4.54536372832636
C         8.08538119149332   11.40896534489375    6.46143908734641
H         8.46381438830445   11.23298558130971    7.47238835884795
H         8.89352387009602   11.82595516097378    5.84444269874702
C         7.60377683860310   10.11460685273400    5.84874775738964
C         6.80927115467430   10.14156080385333    4.70787619821408
H         6.54390445655839   11.09768921153623    4.27218704242949
C         6.36307866134188    8.96708049479564    4.12813853239931
H         5.73711939979981    9.00218714669681    3.24976337392955
C         6.72126300829478    7.74511819498153    4.66647170554874
H         6.38570826844725    6.82233082365680    4.21834487481330
C         7.52987627874362    7.71114158764662    5.80074045871287
C         7.96119526816684    8.89542971997610    6.39729309036044
H         8.58048675590278    8.84845272849112    7.28160802953561
C         7.93499278882620    6.46996471636394    6.35046088081508

