85
CSD_code = LUCWEM | q = 0 | S = 0 | Stoichiometry = C42H37BrNO2PPd | MND = 4
Pd        0.42544612352853    1.73934758178129   11.01013838626436
P        -1.49084923861821    2.86029393039881   11.01490418952367
Br       -0.75913735441710   -0.41882070054512   10.73703425459375
N         2.23224698166678    0.55224802871383   11.22821615861161
H         1.75040942230730   -0.29679504666663   11.55535323479246
O         3.76579629349951    5.31010902590345   11.48453611295158
O         3.58590802789437    4.82158149311408   13.66948975696492
C         2.30266168311714    1.52293030576334   13.44427674754282
C         1.84880191708814    2.84910195523249   13.40589993884715
C         1.11468528668546    3.34868844380022   14.47547415108330
H         0.78939647830376    4.37874788276630   14.45677935284993
C         0.80964497043895    2.54233668143319   15.55755260024408
H         0.23500853870886    2.94195490741864   16.38021990579506
C         1.23606178458331    1.22551588855348   15.58312222386176
H         0.99561704260154    0.59188822540712   16.42391296079738
C         1.98223158576381    0.72060076511386   14.53193616597317
H         2.32927410361187   -0.30349987433411   14.55866631817918
C         3.13247261430781    0.98204717543311   12.30506381282377
H         3.78713667366357    1.76991484214578   11.91528071990702
H         3.75771805736688    0.14544345450776   12.64864546032134
C         2.14700547452138    3.70256113248314   12.22015393843189
C         3.21680554714142    4.69868305747568   12.37162881292165
C         4.64427909882968    5.72716539026501   13.92195308171277
H         5.53483729465359    5.44114477635158   13.35734717704807
H         4.83719521591446    5.67892673761024   14.99077490170297
H         4.35901807737311    6.74050677105528   13.62912051712184
C         1.49103618820561    3.42988815853819   11.07668854430060
C         2.92632715386839    0.18514602042445    9.98578768655150
H         3.53226332452931    1.03672946414712    9.65780053937732
H         2.15828054235307   -0.02793361303258    9.22799440050214
C         1.50543494023384    4.17455497165960    9.83107081032548
C         1.43428298216460    5.56787521468296    9.78470820224408
H         1.43640014794647    6.13044809802634   10.70485346876870
C         1.34362936896069    6.22360872287700    8.57310718536344
H         1.28550206560422    7.30220433800599    8.55486871289883
C         1.32595432986043    5.51053796006614    7.38576255542016
H         1.25710180135259    6.02957942009566    6.44106275229163
C         1.39135199354898    4.12635330078663    7.41429475519803
H         1.37411490095109    3.56480255576544    6.49073554587362
C         1.46769558410530    3.46452219588445    8.62313142719868
H         1.51862318021528    2.37119824808135    8.64255912939632
C        -1.57875247399639    4.66202037678092   10.78815661378013
C        -1.21631607511594    5.47726415973662   11.85687881926532
H        -0.93301928919303    5.01956035702253   12.79591682095080
C        -1.22345544156192    6.85105844587645   11.71612672738453
H        -0.94896510689521    7.48073761809291   12.55015293072224
C        -1.57792937108158    7.42122853929759   10.50315813960562
H        -1.58151291262990    8.49550048255694   10.39297888632866
C        -1.92119137162158    6.61354364036785    9.43258947688209
H        -2.18990107483319    7.05617466895348    8.48485688840444
C        -1.92075269989192    5.23692227863850    9.57029447455688
H        -2.18739170902060    4.60753382963549    8.73255505394723
C        -2.61765278662544    2.23846927596728    9.73160952085982
C        -2.00909667502795    1.89123179179241    8.52658167268451
H        -0.92672183714084    1.98384632831180    8.43648776404260
C        -2.76837679573250    1.40853839302613    7.47941137854045
H        -2.29536555108724    1.13380806947328    6.54827915183580
C        -4.13796987179930    1.25876641498895    7.63561448341790
H        -4.73311528523089    0.87029925510926    6.82258626301498
C        -4.74150358358342    1.58663381887529    8.83760051971283
H        -5.80584014957711    1.45099922015565    8.96222899424450
C        -3.98680669647028    2.07807264489784    9.88952768647622
H        -4.45814569585094    2.31249879757940   10.83290981348256
C        -2.29929558467714    2.62989934523454   12.62389352272700
C        -3.43428811291608    3.34667958395600   12.99570960766632
H        -3.84894296760308    4.08589740908633   12.32291328506599
C        -4.01196680019209    3.12484260199650   14.23172156001590
H        -4.89454435903316    3.67790458185535   14.51883378622185
C        -3.46096421658201    2.19683374879911   15.10234977911041
H        -3.92047045257340    2.02502181030405   16.06455367277549
C        -2.31990116840300    1.49871072612776   14.74486003847499
H        -1.88398983674423    0.78394048449417   15.42623980552261
C        -1.73528376770164    1.71764952409284   13.51059632512052
H        -0.82847680883538    1.17666796572014   13.23081088678726
C         3.78305611981177   -1.04137598645820   10.17669047755053
C         5.16749140426116   -0.95888624057940   10.22185947567679
H         5.65256342286056   -0.00310425390808   10.07993366775883
C         5.92808245120810   -2.09450006530253   10.44213539290159
H         7.00530804523461   -2.02167608408094   10.47301295870478
C         5.30933880510535   -3.31926063446410   10.62454884461486
H         5.90353993955901   -4.20436349557715   10.79700968111020
C         3.92747615096360   -3.40795790171386   10.58285034192611
H         3.44070751650695   -4.36167421904595   10.72160464258828
C         3.16678059477528   -2.27481809595977   10.36052653807361
H         2.08809187407381   -2.34707709890589   10.32083703249568

