52
CSD_code = LUCXAJ | q = 0 | S = 0 | Stoichiometry = C19H27BrN2O2Pd | MND = 5
Pd        8.03508819974585    8.65896933062999    1.94064977443838
Br        8.09096945320756   10.90807224043044    1.22373230468697
N        10.36340672961505    8.66463937101403    1.87689165307746
H        10.53911077062450    9.65913863105277    1.71082341264540
H        10.82801176311769    8.14441127921400    1.13062689036864
N        10.43148166599788    2.65630619026439    4.15173846219224
O         9.33582083980466    2.15097815103939    4.02848087661232
O        11.43963137762858    2.05732345147683    4.45821306959333
C         6.05886594740540    8.34647420527670    1.80957269113388
C         6.09509327342788    7.02322424106736    1.70347845940493
C         7.52588913892367    6.60944791878959    1.87844066897693
C         8.16516321489737    6.83463392623287    3.08835531123376
C         9.47939584826519    6.17177817767172    3.36137142959766
C         9.40785047181358    4.80354131140043    3.60649767090598
H         8.45678183507267    4.29406069059206    3.55623680933120
C        10.54371555596748    4.07331796773906    3.91388129607332
C        11.78471429202843    4.69136835990630    3.99307013666575
H        12.65933307486963    4.10849123200916    4.23461478649159
C        11.85944567194957    6.04623214291342    3.74969948143947
H        12.81988386370266    6.53713551316282    3.80513380970470
C        10.72985956189180    6.80169207581505    3.43699618862390
C        10.91494110716812    8.27627406963032    3.17703197608135
H        10.39398216940673    8.86259387469580    3.94518945452196
H        11.98764906297274    8.51343390814155    3.24622606764520
C         4.94994949190587    9.33619304868751    1.78833169520912
H         3.99766196164067    8.81576798225369    1.63755822599993
H         5.09395393747383   10.03443288647023    0.95757037770658
C         4.91396289866090   10.12677450999285    3.09974184907302
H         4.13581889450943   10.88477552196576    3.06465816500941
H         5.87239560995634   10.62389395282967    3.25722384390388
H         4.71823073190591    9.46334473401385    3.94081600550453
C         5.01289071998541    6.01445431164001    1.43833929972726
H         5.19379274730914    5.53328870711604    0.47259317789862
H         4.05299789207110    6.53023508949541    1.37710658981492
C         4.95793057624186    4.94331954072681    2.52589412641684
H         4.19432495230594    4.20581547915554    2.29032801527112
H         4.71970496581397    5.38679566080304    3.49009484475884
H         5.91423268327176    4.43122626409402    2.61017568720613
C         8.18426245443480    5.90317330364338    0.71544592349554
H         9.22718679039079    5.66712085039728    0.94987159647198
H         7.66162158500529    4.95947685496837    0.53337443923722
C         8.12240567792753    6.76854941324857   -0.55009695315373
H         8.67122376513293    6.29611415051126   -1.36200517232276
H         8.56389383340865    7.76375768252078   -0.36494660813552
H         7.08922554612768    6.90844609067220   -0.86720151555186
C         7.39228398963763    7.12704464205659    4.37076149340136
H         6.32935533528200    7.21420381803471    4.13262241530597
H         7.52219758606250    6.28031763330068    5.05336473557577
C         7.84431190566270    8.40958472038793    5.07846237541771
H         7.16663035084621    8.63833797353726    5.89815392284050
H         7.83110078852666    9.26118757925932    4.37464253918601
H         8.84456743899659    8.29252933805266    5.49316622328446

