119
CSD_code = LUCXUD | q = 0 | S = 0 | Stoichiometry = C52H62Br2N2Pd | MND = 4
Pd       11.97474598458325    5.04135854180045  -10.76610758911235
Br       10.92266830678230    3.26049860027508  -12.09657197724948
N        12.69715062904836    3.58735800824065   -9.49122413200827
H        12.43031065837991    2.71258066096947   -9.96098986080446
C        10.48087254295554    3.58460873900160   -8.50332816833597
C         9.78938900833390    2.37328083962286   -8.57119484659153
C         8.44399337936268    2.38051713171165   -8.92453056092493
H         7.91753430730867    1.44250792270524   -9.00162633196419
C         7.78912378854054    3.56718367590556   -9.19096906935564
H         6.74686237979828    3.55427138187621   -9.47328164573182
C         8.46579897337695    4.77195384623755   -9.09608085301573
H         7.94345903327619    5.70140895995906   -9.27681505175633
C         9.81095180781809    4.78189985439986   -8.76285355351948
H        10.32870327399293    5.73241819743911   -8.62971267785985
C        11.96251875370988    3.61323604672492   -8.21557998151062
H        12.23500797952808    4.53038686662396   -7.67998957349679
H        12.24746478896475    2.74413943570915   -7.61210592168980
C        10.47079138667834    1.08753929835852   -8.28219739324334
C        11.24859270584748    0.51215799834067   -9.18886050245900
H        11.37365712781280    0.94456380393613  -10.16833953841884
H        11.75851655269163   -0.41986134358972   -9.02219696323735
C        10.12156952633109    0.45087686951893   -6.94790919466529
C         9.74169185208979    1.49179593440376   -5.91333153394759
C         8.43196269716743    1.38547078197807   -5.63170634467611
C         7.85171998032667    0.28553464746118   -6.39993053010384
C         8.80695551809134   -0.28780645974236   -7.15164352449310
C        11.21817954659744   -0.48179576177860   -6.42880710565701
H        12.18126578012870    0.02513563012306   -6.40792065815880
H        11.30755659025541   -1.36256480704117   -7.05774010706374
H        10.96633135182280   -0.80383979097483   -5.42086296761600
C        10.71749223904795    2.44066699451821   -5.30369107298150
H        11.74005832160545    2.11056884011766   -5.46899492718528
H        10.55413814572223    2.51177787204592   -4.22906395758404
H        10.60345500943791    3.44094996524750   -5.72387796060034
C         7.62632310639778    2.22206254416818   -4.69817223740528
H         6.88539468498356    2.79424714040773   -5.25649447412639
H         8.25743765358273    2.91946469370666   -4.15510804794668
H         7.09563448687060    1.59504511273979   -3.98285821360999
C         6.41322075132466   -0.08817833402555   -6.28490623240938
H         6.19726139735838   -0.45474083786527   -5.28156099305192
H         6.14805829310884   -0.86525464273355   -6.99629736672930
H         5.78367551639939    0.78237232824546   -6.46476218317141
C         8.70277467849752   -1.44426558949631   -8.08218776805506
H         9.30469996269592   -1.26815273953715   -8.97324518273587
H         7.67250608982011   -1.61140233454712   -8.38713264015675
H         9.06411941240408   -2.35626528409889   -7.60377167788376
C        14.15539198397821    3.54429252781649   -9.29965367904711
H        14.45333144980554    4.37853905712013   -8.65767358013898
H        14.63141531451406    3.67095091890727  -10.28114373641808
C        14.55761304460375    2.22656514812037   -8.68888687067479
C        14.57700756796314    1.08134255936594   -9.47616695201698
H        14.37508920970154    1.15574951598767  -10.53592901281998
C        14.85344506670147   -0.15167193082887   -8.91403798313670
H        14.86748816058240   -1.03467684509460   -9.53556003814909
C        15.10670896100967   -0.25354782053293   -7.55644922967539
H        15.31422400759363   -1.21678146754952   -7.11475914011581
C        15.09519618685093    0.88329531579936   -6.76625203968729
H        15.29518839449661    0.80873164375051   -5.70733445795544
C        14.82194012913196    2.11775346206397   -7.32981791109185
H        14.81501601555525    3.00418727108901   -6.71122273940356
Br       13.02089062754267    6.82191717736353   -9.43280532026599
N        11.24682650293278    6.49499295823671  -12.03787506293079
H        11.51373928401522    7.36968816205314  -11.56800977833101
C        13.46293495477950    6.49767329289265  -13.02536985919702
C        14.15451874361012    7.70897288480184  -12.95770052842748
C        15.49993337323344    7.70170258698688  -12.60447296669373
H        16.02643091991164    8.63969584224637  -12.52741130212470
C        16.15477840168014    6.51501056827243  -12.33811962148183
H        17.19708933589029    6.52789423699220  -12.05597281725574
C        15.47800008895543    5.31027773161275  -12.43280829634386
H        16.00038953214677    4.38081046036760  -12.25227238240475
C        14.13270787697611    5.30037342006951  -12.76555599152142
H        13.61503262641091    4.34986315662995  -12.89895824870874
C        11.98137828055394    6.46911296240467  -13.31347815495868
H        11.70894674150628    5.55193366574217  -13.84906063379114
H        11.69648343781908    7.33820993350058  -13.91696747181944
C        13.47323518797155    8.99476962704088  -13.24672693061118
C        12.69553168936921    9.57025177998180  -12.34004476484725
H        12.57017438203487    9.13768812179683  -11.36066817861724
H        12.18540112430143   10.50214742082536  -12.50684128835809
C        13.82241308471695    9.63135876770958  -14.58107526120839
C        14.20220530521878    8.59039993942635  -15.61564127908734
C        15.51195381227237    8.69658269387170  -15.89723178136844
C        16.09228926013403    9.79647534467932  -15.12901916085405
C        15.13708198841945   10.36994976899131  -14.37737077924270
C        12.72585981049049   10.56410215339518  -15.10016774253075
H        11.76274660954506   10.05722330244750  -15.12106700190285
H        12.63651900486170   11.44486774695656  -14.47122469754744
H        12.97773049434829   10.88614780096821  -16.10810634227466
C        13.22633216402643    7.64160895952934  -16.22527501888092
H        12.20379055389774    7.97177574101619  -16.05995507615738
H        13.38967258409067    7.57050975052471  -17.29990789510603
H        13.34031785765287    6.64130649719008  -15.80512482728282
C        16.31754436994210    7.85975149816092  -16.83061304278460
H        17.05654228761034    7.28550250464994  -16.27180582531205
H        15.68598856871793    7.16415978601188  -17.37553691430375
H        16.85048621082722    8.48673721241794  -17.54428843335601
C        17.53082871484129   10.17003961652832  -15.24398480794595
H        17.74678789526934   10.53706010222141  -16.24715615323233
H        17.79616246454384   10.94674942601889  -14.53226772505787
H        18.16026607206458    9.29932483881262  -15.06457284131591
C        15.24134396230713   11.52645894279544  -13.44689747202602
H        14.63950168192754   11.35040310448795  -12.55577392029728
H        16.27164086834732   11.69362150463165  -13.14205792925849
H        14.87995761798700   12.43843085005928  -13.92533441887028
C         9.78854814587327    6.53796991523923  -12.22929444491309
H         9.49059929936674    5.70372003967637  -12.87127295819600
H         9.31263173094695    6.41128745795047  -11.24775614895818
C         9.38629985892788    7.85569178814099  -12.84010227253261
C         9.36709743760234    9.00096949130563  -12.05289647725119
H         9.56913892901132    8.92661410857297  -10.99315531932027
C         9.09070287885452   10.23397582544879  -12.61506884693233
H         9.07678469279754   11.11701733263967  -11.99359577679785
C         8.83731033634915   10.33580077293125  -13.97263676658273
H         8.62980081086143   11.29902433243246  -14.41435382637530
C         8.84870098806718    9.19891968707056  -14.76277891263607
H         8.64864621525745    9.27344795355545  -15.82168790177237
C         9.12191156943538    7.96446932797042  -14.19916709800789
H         9.12878929760682    7.07801752859599  -14.81773683915527

