59
CSD_code = LUCYAK | q = 1 | S = 0 | Stoichiometry = C22H34NOPd(1+) | MND = 5
Pd        1.26742086515581    3.69048610620313    3.07483038317543
O         3.44099491515583    4.71239266212012    3.55450620110842
H         3.82763181023826    5.37227267692836    2.97070911263310
H         3.59432166895808    5.00399997018397    4.45890177582474
N         2.08680310948784    1.83245490251116    3.81520556913554
H         2.95033799001567    1.94513319073951    4.34672714309557
H         1.42456348230274    1.31942175757485    4.39868961551831
C        -0.18460032810472    0.77441106372796    2.28221547072015
C        -0.97128115464312    1.65053716516366    3.04669077027156
C        -2.18285258179208    1.17050173118395    3.55752024788130
H        -2.81087598931108    1.83034526623435    4.13461103131286
C        -2.61527046540415   -0.12069055286188    3.33059920017433
H        -3.56091878227390   -0.44735597828990    3.73407837405401
C        -1.83084639217618   -0.98407717945496    2.58770123057379
H        -2.15048096254100   -1.99761259150294    2.40484805882068
C        -0.63337710020863   -0.52765705560818    2.07394760797569
H        -0.02676246645211   -1.19730682809142    1.48237386983356
C         1.13128880941274    1.15343197956416    1.64858857076735
H         1.07529838825315    2.17763971132236    1.25006533614862
H         1.30940361220951    0.48125242817992    0.80828792035801
C         2.36095560702956    1.05864620582858    2.58716908116964
C         3.54846296264515    1.72268085911713    1.88617530252304
H         3.33650997221034    2.78969711939549    1.73522866513376
H         3.72809993497259    1.26259653696555    0.91867989081446
H         4.45388384788807    1.62695313045253    2.48231617201769
C         2.67474863081399   -0.39558914947338    2.93995444649509
H         3.51422174240851   -0.44960191815787    3.63052754056381
H         2.93825608306790   -0.95668332735797    2.04823004550384
H         1.81293465294043   -0.87265901545823    3.40236560552691
C        -0.63837781015235    3.06994555055950    3.40905275849131
C         0.67305402772636    5.14891983804274    1.50664389822466
C        -0.10045928153620    5.22106284341081    2.65566978729416
C        -1.22720903112664    4.18862896726284    2.51917829930970
C        -1.11753794264117    3.76373912631090    1.06431733522491
C         0.00892988757385    4.27445640263660    0.52553752248511
C         1.76150234269362    6.09858420767932    1.10508946018744
H         1.39251013127836    6.74542365824728    0.30845035348350
H         2.62639663865799    5.56278820462313    0.70847874169982
H         2.06684370077460    6.72943383050661    1.93864564708600
C        -0.05506509486169    6.31782880540716    3.68711385193149
H         0.87767359043068    6.31085922707737    4.26370670198976
H        -0.88910870019618    6.24121968461406    4.37869579470178
H        -0.12746268901205    7.28387162927896    3.18592288058797
C        -2.63162568293500    4.67364181727961    2.86134978900525
H        -2.91058357934322    5.46977577924489    2.17524075183614
H        -2.69235407338026    5.06113148007299    3.87408407664775
H        -3.34474399484086    3.86120081444565    2.75501600190072
C        -2.13992723805471    2.91172964413291    0.40241415820041
H        -1.70621305672866    2.34429259646695   -0.41675125994500
H        -2.93103265358367    3.53996632649207   -0.00843870624116
H        -2.59283901772006    2.21761302186027    1.10490068066998
C         0.52274956332639    4.11196122274947   -0.86727668869126
H         0.03074404808377    3.28360821941582   -1.36804115095154
H         1.59733365324294    3.93506943513829   -0.86842076479775
H         0.33222089013538    5.01616117530451   -1.44454431017850
C        -0.78419014603537    3.29981784555838    4.91272055121220
H        -1.80988100798945    3.54638150450053    5.18664963495790
H        -0.14784035114260    4.12311522884155    5.26255952435599
H        -0.51447898490360    2.39445104569795    5.45829044018939

