35
CSD_code = LUDGIB | q = 0 | S = 0 | Stoichiometry = C13H13N4O4Re | MND = 6
C         6.01558870530069    3.41267245369865    2.70688897180467
H         6.31298560270500    2.36666574025677    2.79202095212169
C         4.80549249008480    3.55278371372319    1.63305678826020
H         5.21151337136995    3.09772612556083    0.69726240587602
H         4.01493451310870    2.86215075297176    2.01458102580692
C         5.19474086092044    7.60367604497328    0.80862356719614
C         5.96556184445349    8.04885088486303    3.47675269020418
C         3.34179148473994    7.24325610981152    2.85255576310168
C         7.10701363833001    4.25945883212004    2.18109262159243
C         8.95058593447508    4.91118712967594    1.19956526779564
H         9.91264406274053    4.82859166879515    0.73817274467699
C         8.16515421848102    5.99030944916971    1.45535768342956
H         8.33809091320987    7.02776416927999    1.24945815386878
C         8.71644734835141    2.44879351506962    1.56541397710981
H         8.79829259101752    1.99950785407295    2.55828661293465
H         9.69601606039762    2.42944272152878    1.09166709666460
H         8.02379353823376    1.85599778589049    0.96381498170750
C         5.47667891125761    3.94216547674243    3.97737815025236
C         4.60931885085862    4.06557510256309    5.98223134237286
H         4.27970935355277    3.73129693663932    6.94393752105379
C         4.58403362797498    5.29281651010208    5.39904645212863
H         4.22122573024015    6.22584913499978    5.78171564414538
C         5.37205497289730    1.79745779881386    5.25682773065598
H         4.81527366329940    1.22764185777470    4.50968358345690
H         5.01625356818347    1.51772384769347    6.24648780992421
H         6.43199564309217    1.54248648839929    5.18036826591782
N         8.27201387383821    3.81135710471891    1.65718795175141
N         7.01866603843264    5.57076708281174    2.06191682781176
N         5.17230723966362    3.20773277899513    5.07305589264261
N         5.12248907944136    5.20165125821214    4.15003104677232
O         4.37008268417953    4.78152011192274    1.45757215560888
O         5.24330993556939    8.12727537469202   -0.21039613286983
O         6.49438582134610    8.86475661907893    4.09713390401327
O         2.25957402276400    7.54537032581998    3.08191793018167
Re        5.14057980548882    6.60772123855906    2.47753262002894

