70
CSD_code = LUDHOJ | q = 0 | S = 0 | Stoichiometry = C27H31N4O5ReS2 | MND = 6
Re        3.06921731073666    8.92724825841795    4.81061107751947
S         2.18706323120723    9.07793709913103    7.16929656715256
S         0.66589603937545    8.05959167102015    4.24398807972248
O         3.98564842889574    8.49171736645392    1.89120848685989
O         5.87726041246079    9.58247406996769    5.90722036332846
O         2.16620758690623   11.83699940017640    4.33574843930553
O         2.15199705201447    5.95199905119130    0.82955815749906
O         3.50907648356369    6.76956316825074    5.25047755634738
N         1.92190145854362    6.04187150191519    3.10550402361815
H         2.55122682020280    6.17482371312643    3.91132873578506
N        -0.35961310919773    6.31202792329994    2.58417207275572
N         2.82297757582768    6.48066321422031    7.41571068603676
N         0.82964473433671    7.12400345522992    8.30073085406820
C         3.63455987164726    8.66691893294872    2.97254564118955
C         4.84407672805044    9.38090773404079    5.45483973232552
C         2.54599321217835   10.76806487143833    4.48805865879847
C         2.59312281912902    5.72228018968362    1.92922574695333
C         0.73553047130355    6.73184879548961    3.21316551811277
C        -0.48235140161544    5.00514986397657    1.96040113136392
H        -1.34609584575564    4.50673419592587    2.41574831137339
H         0.40780341267376    4.41884955334231    2.19127249749049
C        -0.66782678312389    5.07224838814263    0.44799305533778
H         0.17308465470982    5.58743505243417   -0.00551662996315
H        -1.58744826871962    5.58567671545707    0.18037240303191
H        -0.71243279236403    4.06135945939032    0.05229686285997
C        -1.58444154724596    7.08543264517382    2.67509286848864
H        -2.17264049478210    6.88625506991238    1.77888301922990
H        -1.32220303384746    8.14568901978217    2.69271013057087
C        -2.39703474618000    6.74175128728972    3.92069901093845
H        -3.29997983050691    7.34470737872962    3.94144993282143
H        -1.82054147237453    6.95452417750749    4.81640439248735
H        -2.68143958963899    5.69178628506171    3.92523465898487
C         3.90426363019859    5.08189334821468    2.18942248741897
C         4.08616727565934    4.19595743870056    3.24791103512189
H         3.26487929709096    3.95790535113330    3.90920377078041
C         5.31488532197432    3.59196157206349    3.43689228494671
H         5.45107530309163    2.89570036593517    4.25100154624354
C         6.37019050211124    3.88474166416404    2.58782838327868
H         7.33114289905836    3.41831459714695    2.74653743731950
C         6.19343130808436    4.76863411584937    1.53581372025761
H         7.01646657845100    4.99626904532807    0.87536621454003
C         4.96027431088796    5.35691650403256    1.32633980916683
H         4.79979611006565    6.04471194238055    0.51052998821031
C         3.65674550277212    6.30655858620526    6.42180916780558
C         1.92712584418992    7.43515728414388    7.59398332618648
C         0.61401348614369    5.75879251819978    8.73508712270786
H         1.04671451580681    5.08532972911697    7.99114346249750
H        -0.46409977329269    5.58337100082857    8.78007110140379
C         1.25453625415088    5.49592425348642   10.09561105183301
H         2.32320646114862    5.68599960430102   10.03909604157052
H         1.09266619745511    4.46278504046340   10.39178679171473
H         0.82754304662356    6.14759993984683   10.85443853726771
C        -0.13997050072360    8.11940638982200    8.70728495060133
H         0.37606389322872    9.06416146589147    8.89158567006151
H        -0.59255867626243    7.78437023165255    9.64352644425784
C        -1.21468831570387    8.32275634980844    7.64203221930115
H        -0.75972196910763    8.66859562896374    6.71684427269087
H        -1.92977171863130    9.06983074818578    7.97416317617004
H        -1.74523784071789    7.39215195806166    7.44723674082848
C         4.80475486646334    5.41281714520194    6.68063100825654
C         4.79796076313360    4.50907789345487    7.73835676941234
H         3.92241419581204    4.44007592614268    8.36586363857399
C         5.90256922936555    3.71188900767490    7.96828504237967
H         5.89696702717798    3.00635291013508    8.78648103062284
C         7.02003319095377    3.81930116332801    7.15411724328528
H         7.88398027505574    3.19845221531384    7.34188799551213
C         7.03179387833184    4.72355466030018    6.10475786387174
H         7.90412168949461    4.81345569284949    5.47477404527243
C         5.92590932260771    5.51598586237056    5.86192337432484
H         5.92231722945545    6.23030134118649    5.05064319192223

