97
CSD_code = LUDPAD | q = 0 | S = 0 | Stoichiometry = C52H39Cl2N3Pd | MND = 4
Pd        2.69778814065750   16.86502315318983   10.20340883071547
Cl        1.38151651187436   18.53911773074389   11.09778845139794
Cl        4.00121645145592   15.19658850577060    9.27376187434475
N         2.78793801739079   18.35510026428719    7.65929233041065
N         1.10434563551322   16.96392851018836    7.72418408006238
N         3.24344958370955   16.28672101336118   12.03476794174255
C         2.16578972776860   17.42743709854036    8.41692806096013
C         2.11365407421503   18.50102007775760    6.46006861403647
C         2.32518773453638   19.31758996466525    5.35824325480309
H         3.14109955473742   20.01716909214867    5.31478117545095
C         1.44244131404272   19.20396325151144    4.30267226099919
H         1.58204988554967   19.82556912084300    3.43169605187798
C         0.37886587587885   18.30689257980451    4.33776064506923
H        -0.28898020108370   18.24453306854466    3.49244291024743
C         0.15612594520336   17.49481443556722    5.43199780000445
H        -0.67215628485377   16.80866029870406    5.44312484617795
C         1.03638716269594   17.60337127834261    6.49916908135263
C         2.50002159307726   15.41991398484987   12.71849656941315
H         1.59957618486625   15.05325099010169   12.22983306209858
C         2.83950713442504   14.99509050157435   13.99135762321478
H         2.20762795289588   14.29156544882408   14.51006766757394
C         3.99527660270886   15.48794500852506   14.57671899461441
H         4.28809417065268   15.17684642487806   15.56804064655826
C         4.76654574712019   16.38906434830709   13.85939793870792
H         5.67457617061379   16.79895695490421   14.27266893578211
C         4.35481581432446   16.76239378884740   12.59170647905070
H         4.93749432654252   17.46617782717182   12.00075857825614
C         3.96389368540765   19.16815522244485    7.95019697990546
C         5.00851777742029   19.06888195659841    6.85852477865057
C         5.59561045606817   17.93860455754797    6.33852200159453
H         5.28599631117514   16.95499733260336    6.66174499540042
C         6.59761317903183   18.09899063116679    5.38885724457978
H         7.07002222592990   17.22780185393063    4.96019558186953
C         7.00288122377660   19.36359642262113    4.99297406036210
H         7.79187865174552   19.46368146073228    4.26196464361237
C         6.40800041024296   20.50313041074135    5.51441199646728
H         6.72567972994754   21.48467931624148    5.19641765522089
C         5.39837659813926   20.35260944896032    6.44796969444336
C         4.54709480085041   21.33117491459947    7.11410213163664
C         4.48743636369758   22.71008941925485    7.01735682796912
H         5.18515105615914   23.25238761966180    6.39713205873418
C         3.50966661353131   23.38184183901176    7.73624081339791
H         3.44897889358278   24.45853261151191    7.67187510484791
C         2.60643845824076   22.69544303076855    8.53277666088680
H         1.85053418509468   23.24178332253630    9.07684368171234
C         2.66841449978670   21.31196443395099    8.64842577961171
H         1.97985479597436   20.77281966567450    9.28371262911702
C         3.64044283730931   20.64700004720229    7.93633102515554
C         4.65692573332460   18.83535290744612    9.29948222717916
H         3.95373593808179   19.06707610176375   10.11813354120333
H         4.93915928278986   17.76997300636775    9.28961316132587
C         5.89933587430071   19.66707813477662    9.47261861325462
C         7.13342147890614   19.18690409315610    9.05182918702998
H         7.20591154957190   18.19492412935855    8.63007589172158
C         8.26803968354299   19.96946780145397    9.16495169356004
H         9.21984721608295   19.58558643040602    8.82825120797778
C         8.18413707203336   21.24081611063455    9.70624112242960
H         9.06900770763173   21.85449951152651    9.78942464656463
C         6.96293720236212   21.71770840983117   10.15024996658008
H         6.89192835096831   22.70384974930084   10.58521333471788
C         5.82851143160583   20.93427744212982   10.03792653018890
H         4.87947189510676   21.31143814597512   10.39019953876045
C         0.10349639480906   15.96890755123088    8.09425095173990
C        -1.29990291016757   16.53218365705727    8.02263510132742
C        -1.79818015628089   17.65779709406910    8.63764995743790
H        -1.15564685921160   18.29926943072005    9.22403635426137
C        -3.15051356063618   17.94034184932998    8.48682788581612
H        -3.56630421640072   18.82026113889678    8.95454963184467
C        -3.97234799440972   17.10083082575180    7.75140885933369
H        -5.02269263662081   17.33527060481265    7.65749240092918
C        -3.46862132578751   15.96767769035533    7.12975285796384
H        -4.11510534054759   15.32145025059269    6.55531974228156
C        -2.12043933086584   15.68654240465766    7.26197116177314
C        -1.29328299130631   14.63168028053057    6.68796453327923
C        -1.60414864450409   13.58395042313523    5.83982414440350
H        -2.62232185254475   13.40890605891326    5.52641644280228
C        -0.57730271425120   12.76133967905185    5.40042311413807
H        -0.80311850085478   11.93803535137236    4.73851343684601
C         0.73389061655188   12.98012149709525    5.79235908457905
H         1.51565840711872   12.32939456251589    5.43004378162489
C         1.05348180939076   14.02110588567185    6.65583454836530
H         2.07143889567248   14.18594826653115    6.97938773213439
C         0.03380749519775   14.83406010743386    7.09455445032878
C         0.30101767275062   15.35075220939655    9.50493119252686
H         1.29090848497779   14.86533165398622    9.53586071362333
H         0.21492343724187   16.15785172159300   10.25158420385702
C        -0.75328633104585   14.31152218547764    9.77683557973041
C        -1.97275118731821   14.66766934831863   10.33900633057348
H        -2.15438525020001   15.69537503802895   10.61804991746748
C        -2.95734744002538   13.71722110097655   10.54096774172520
H        -3.90325776266191   14.00918625634135   10.97306256542933
C        -2.73265683767241   12.39742003817712   10.18958903096279
H        -3.50358481509942   11.65648414159709   10.34195786967426
C        -1.51124124777708   12.02952171769802    9.65182107524615
H        -1.32371909517134   10.99937202364479    9.38681546402250
C        -0.52703283938315   12.97988382186070    9.45062663033752
H         0.42506063109116   12.68581191934000    9.03335379901819

