21
CSD_code = LUDQOS | q = 0 | S = 0 | Stoichiometry = C8H6Br2N4Pd | MND = 4
Pd        0.63861438525825    1.87661612071835    3.32221315042820
Br       -0.85200851023412    3.51046034407836    4.10100804913709
Br       -0.33150563203662    0.30055675668875    4.75960842433899
N         2.01407790715295    0.56176827357397    2.53606965027032
N         3.76161922989863    0.48150082768907    0.94032830997486
N         3.31671586878171    3.11794014899890    0.37901265902340
N         1.58237190536522    3.13294909107883    1.99109700459379
C         2.22587993025095   -0.72511578327306    2.82622361338391
H         1.59035567733767   -1.16923326072322    3.58454617736381
C         3.21135932235199   -1.45364904605913    2.18566111218788
H         3.37688177880361   -2.48992583604367    2.42650600725084
C         3.96869487824941   -0.78741840931104    1.22381341838249
H         4.75702637278105   -1.27556492220611    0.66833478183569
C         2.80591842789653    1.11816903191229    1.59361337336473
C         2.56845273759130    2.52765498277235    1.29397367856352
C         3.09259837861945    4.38904763548349    0.11905054906897
H         3.72407264146721    4.83772159286993   -0.63471455798478
C         2.09775688975156    5.10532955483239    0.78193952134409
H         1.90730837375213    6.14467730347131    0.57509143089094
C         1.35468695376150    4.42288927851485    1.72768536790713
H         0.56312248319796    4.90712631493611    2.28893827867295

