28
CSD_code = LUDQUY | q = 0 | S = 0 | Stoichiometry = C13H11ClN2Pt | MND = 4
Pt        5.19695807937804    3.31547548062239    7.75181491391132
Cl        6.15581871926635    2.04692844470306    9.49568660013192
N         6.71389115061902    4.55147451768803    7.55147740185324
N         3.74974389786474    2.15059597355663    7.92859305062203
C         7.82984502980578    4.49053019984245    8.27688154960346
H         7.87761989072930    3.70126657702746    9.01713547428241
C         8.87959866921623    5.37499267693674    8.11152637943005
H         9.76110746860519    5.28347087606510    8.72491236183487
C         8.77019320111672    6.36857973062110    7.14956450138816
H         9.57016900949984    7.07641741783180    6.99247718800433
C         7.61548152847687    6.43571534462240    6.39430055213927
H         7.50344832805442    7.19671683487313    5.63931601412521
C         6.58894794322496    5.51720114633032    6.60632389990118
C         5.32751847223730    5.48361519022637    5.87881899525319
C         4.97494319848699    6.37896086381019    4.87054635242874
H         5.64881355335412    7.16897767113791    4.57295334798217
C         3.75065861438581    6.25911957852014    4.24358996286881
H         3.47333599001963    6.95205700762181    3.46267368263585
C         2.87889243744813    5.24855363372827    4.61862330755500
H         1.92129139725345    5.15701449014340    4.12545483184311
C         3.22707578898371    4.35687764790201    5.62117340806285
H         2.52697287320793    3.57784458106391    5.89310054116892
C         4.45150330004662    4.45024726356254    6.27428966796329
C         3.02389172634601    1.31426072611574    8.24814302011485
C         2.10876914789895    0.28342284183035    8.63067901267088
H         2.53348483944783   -0.68845850804397    8.37903498384675
H         1.15860443488930    0.40943327518842    8.11161927981211
H         1.94322131013738    0.32980851647101    9.70718971856532

