23
CSD_code = LUDRAF | q = 0 | S = 0 | Stoichiometry = C10H8Br2N2Pd | MND = 4
Pd        4.11267987990946    3.10707180501381    1.91649387527294
Br        4.48738742493944    0.95578101255923    2.79104128770821
Br        2.00185388591814    2.38042900409957    1.17538251555147
N         3.92234764740877    5.03685547117491    1.21733266835482
N         5.93381712492907    3.88234202364043    2.49271829271629
C         2.86968666794665    5.55602079520012    0.58664594849724
H         2.03271989137378    4.89165775149722    0.40823665244565
C         2.82072594012604    6.87289997872802    0.16949155417765
H         1.94415088640279    7.24208205537859   -0.33653733730935
C         3.91207952974027    7.69401433854658    0.41719195077608
H         3.91032878997902    8.72805979129242    0.10950708765816
C         5.00655269204131    7.16005776680980    1.06876546275954
H         5.86347593869714    7.78018152746810    1.27195623699622
C         4.99546154033193    5.82082112551492    1.46284169515116
C         6.11291671533324    5.17874712221893    2.15557419987578
C         7.30500158256819    5.83793564543141    2.46114637119707
H         7.44208346506551    6.87022950434538    2.18607218593962
C         8.31512386821448    5.16275067725014    3.11785522800855
H         9.24062129014512    5.66284104354071    3.35736795710848
C         8.11209605761820    3.83291470137869    3.45976055567870
H         8.86880565741711    3.26380099990475    3.97378590741231
C         6.91046995473551    3.23574706601119    3.12789829021878
H         6.72361356916139    2.19905879299889    3.38127141380050

