90
CSD_code = LUFDEW | q = 0 | S = 0 | Stoichiometry = C36H43BIrN9 | MND = 6
Ir       -0.50857107518817    3.75326581907676    7.54505945137740
N        -0.55203711095422    3.83708970512533    9.70788860099520
N        -1.51423608963833    4.60535038977849   10.25467911018655
N        -2.71369022961826    3.58223894810693    7.70648972879537
N        -3.32383314255194    4.43009465561234    8.54593529669285
N        -0.83179552270721    5.94668179625786    7.65315806750939
N        -1.75980404414937    6.37813591521359    8.51825832831187
N         0.29634383522140    2.98919215720480    4.82406124947510
H         0.96022327389352    2.43610829992368    5.36837535120654
N         1.12697492252879    1.86290134022861    1.51166499039938
N         2.60719061805149    0.22191794146010   -1.29484141393976
C         0.14527252435734    3.29962098793145   10.70584143530029
C        -0.38332254557588    3.73393755962663   11.92537832041648
H        -0.03913867006327    3.47518714159974   12.90664813120543
C        -1.43658522022900    4.56181048319873   11.59830911010079
C         1.30639976449568    2.37913076164707   10.57162631506290
H         1.08129766915376    1.43154980614132   11.06128442039052
H         2.17488075436376    2.81083770415496   11.06923307286537
H         1.54533623120637    2.19427892780578    9.53318575128974
C        -2.34442822772068    5.28939471818872   12.52497469448959
H        -2.28532397357803    6.36445850940869   12.36337265007451
H        -2.05677610992273    5.07300908162406   13.55092063956103
H        -3.37816349578356    4.98087823305214   12.37790640547450
C        -3.65285842402448    2.86288618571621    7.10151335315020
C        -4.90861982225522    3.26306085116304    7.56720299225212
H        -5.86339728364442    2.87538805920349    7.27314582792224
C        -4.65843433624968    4.26327358943700    8.48699660028312
C        -3.38458555339602    1.79237081548285    6.10380193303248
H        -2.52874180334511    2.04831690844854    5.48616103447600
H        -4.25866937158841    1.65344892567127    5.47107161934694
H        -3.17448681473530    0.85105901080626    6.61062898851539
C        -5.64077838363970    5.04494443947483    9.28411686139630
H        -5.47456583058351    4.90405649664426   10.35083350763809
H        -6.64737751900169    4.71502214291196    9.03946592843842
H        -5.55714086240752    6.10877567364434    9.06735887255982
C        -0.34124867588612    7.00740303167446    7.02094272976568
C        -0.97556365916624    8.15894733276746    7.49608081578965
H        -0.80211939666415    9.16994130239908    7.18596988129969
C        -1.87237126783520    7.71798069724192    8.45013106568261
C         0.72606613197772    6.95509527748722    5.98577351439280
H         1.70789167048983    6.97349164137640    6.45782631667121
H         0.64481407727797    7.82043701563963    5.33122922893662
H         0.64466457256547    6.04673267657113    5.39610794156009
C        -2.80962808175595    8.52710096416228    9.27366237929863
H        -3.84075595406536    8.22339245209417    9.10027547812880
H        -2.70419129017652    9.57720086969590    9.01264659112398
H        -2.59626626883919    8.40592145472495   10.33446082504523
C         1.57833005887720    3.84145721041018    7.45462366108944
H         1.96937512712424    4.50744925995049    6.67465490044527
H         1.97740920020051    4.24182796881479    8.39491278526893
C         2.17770598950472    2.47328733053806    7.23252392038871
C         1.34809169860478    1.42669185920522    7.24450830497921
C        -0.11534485454740    1.69948430116420    7.50335531514792
H        -0.37693226968329    1.25237929470701    8.47039442580760
H        -0.69986933821552    1.13676621188900    6.76421154858229
C         3.66922456450417    2.44301527810488    7.04319056014853
H         4.04700082471493    1.44970480171086    6.81243631585740
H         4.15996832311540    2.78695829085050    7.95385905922736
H         3.96272326013934    3.12243116985695    6.24140529727732
C         1.71426782046787   -0.01864329955249    7.05216704870388
H         2.77682322759236   -0.16550985193813    6.87544673811726
H         1.16270666973713   -0.43766631624694    6.20876832878637
H         1.43642379330234   -0.58895390511580    7.93820639216016
C        -0.55961684745959    3.73907984701709    5.57767441034635
C        -1.48710427233208    4.49033312977734    4.81139016760106
H        -2.19804749549094    5.10995563453807    5.33526279504316
C        -1.50510820225609    4.44880822692621    3.44027652955262
H        -2.22361138823566    5.03157015209236    2.88239134307831
C        -0.58569069373577    3.64798954776524    2.74908442948307
H        -0.56995128530744    3.59722586471070    1.67433300279798
C         0.32322051292369    2.91291832715588    3.47334836677903
C         1.31304793519827    2.05174060994863    2.81579011229615
C         2.38495994133939    1.47046745186524    3.50095461888020
H         2.54262338327284    1.63978985987574    4.55345588473417
C         3.26700943645608    0.67192734844186    2.79138350741266
H         4.10421666854338    0.21052283517188    3.29486369674740
C         3.06632183989615    0.47424471661334    1.43802469980402
H         3.72003890498435   -0.13664047741676    0.83851739812474
C         1.97230260925787    1.09925955016892    0.83351161062703
C         1.71500770356496    0.92886834223473   -0.60380297470193
C         0.58387624790509    1.48735587438229   -1.20020389059906
H        -0.10920818694555    2.04477810914587   -0.59219777007922
C         0.38813304478077    1.30231659929372   -2.55640683601533
H        -0.47728103894946    1.72207775121156   -3.04919724765983
C         1.32151845012773    0.56861828998952   -3.27298261329469
H         1.20869334648562    0.40096925702313   -4.33271629262509
C         2.41123839099629    0.05095776713751   -2.58677660181255
H         3.16827371861713   -0.53031318532609   -3.09802176468485
B        -2.52596964074440    5.40411992981488    9.42352653351412
H        -3.25634716695764    6.00046033943673   10.13203828866223

