76
CSD_code = LUFHUP | q = 0 | S = 0 | Stoichiometry = C21H45Cl3O3P3V | MND = 6
V         2.66470739119599    5.93394236726380   -0.07903283626145
Cl        1.43901659169489    4.43588708104630    0.87131627635003
Cl        1.78862913378230    7.46415140066813   -1.41144003722258
Cl        2.64739418295107    7.31122960039295    1.68009362101856
P         2.27923605636855    4.66242693028563   -1.96099902620557
P         4.18306092552359    4.39928086863144    0.73612946412779
P         4.43790890568438    7.10895600717077   -1.02716360048280
O        -1.32172763100797    3.91500901646042   -3.73921757084332
O         5.66729848421863    2.62260256932441    2.92915820350174
O         5.28046265856713   11.06942767792746   -0.75815643721870
C         2.64585979493878    2.84792866393987   -1.92158598498231
H         1.83430713389291    2.39095741102495   -1.34556846585890
H         2.60011455328887    2.47013947755739   -2.94876749601542
C         3.98701529728418    2.46817931835659   -1.29635192649571
H         4.78150992018406    3.06857657976136   -1.74879053110849
H         4.19367636599011    1.41950367813144   -1.53287694743279
C         4.00534324535995    2.64053782179752    0.22113859291780
H         4.85040236353124    2.10571494434419    0.66471334572356
H         3.08195575778964    2.24918318874827    0.65470436505125
C         6.00217916243137    4.58419673010869    0.49842363378200
H         6.49851749009950    3.94233848117437    1.22700370318961
H         6.25987773801269    4.21104267380947   -0.49741943130547
C         6.42108052233748    6.04339484790889    0.63447970260885
H         5.79752203844312    6.53229335362460    1.39329958833457
H         7.46627423448645    6.11067311297296    0.95066393758027
C         6.23689912648967    6.76050473380587   -0.69625011840971
H         6.65567858932428    6.15382755080128   -1.50460031677595
H         6.76183394466971    7.72024917033013   -0.68573378507652
C         4.52032888837493    7.14700597662791   -2.87581835526018
H         3.70786360984251    7.76509780225478   -3.26142916536792
H         5.47461045019788    7.60765458919858   -3.15043304449264
C         4.44062785229398    5.73512665167507   -3.45971952869905
H         5.02674212865606    5.05443443346842   -2.83274489607768
H         4.88883953503090    5.73906117182310   -4.45823607626277
C         3.01025399703724    5.20733441207712   -3.57114021644915
H         2.98486098659560    4.35754821909945   -4.26162326521515
H         2.35687582161097    5.99392442720737   -3.96129441367502
C         0.48852361601011    4.60517246630427   -2.38788261872941
H        -0.02707128954702    4.20572725454738   -1.50745577036294
H         0.15761305499753    5.64036353246219   -2.51965093166341
C         0.07495119810163    3.79950594003839   -3.61374409785841
H         0.56199512570331    4.18484662347283   -4.52427172796853
H         0.34767690618978    2.73744249944626   -3.50598225484483
C        -1.84722674251669    3.22063814185456   -4.84653110734883
H        -1.40713043907542    3.61388460134163   -5.77791546709358
H        -1.58488083171179    2.15191224965060   -4.77757943025751
C        -3.35654323541512    3.39561545637701   -4.85853569802503
H        -3.78555942574459    2.87827760563538   -5.71216618577448
H        -3.60309719745314    4.45176618049690   -4.91631481096799
H        -3.78053593187225    2.99275529652724   -3.94335511887614
C         4.00296479794678    4.30015003542760    2.57660110328860
H         3.67610432258714    5.29335573584760    2.90193904716002
H         3.18084955382903    3.59874234616457    2.74882053401181
C         5.20923675296081    3.87162430934607    3.39548019851797
H         6.01664939651870    4.61906104132387    3.33855360540389
H         4.91240378421774    3.78915841302154    4.45397217871980
C         6.72419881608486    2.08713637671404    3.69387092326069
H         6.39461307658051    1.94158313881667    4.73434644017439
H         7.57277986624339    2.79109820230286    3.70649476457448
C         7.14370986027115    0.76084691352786    3.08116083327303
H         7.94938245838797    0.32183617451655    3.66217880642511
H         7.48235689130756    0.91227786396750    2.05958850769689
H         6.29876615556824    0.07825258712618    3.06816234599020
C         4.42104995417270    8.87747252542784   -0.50554476310774
H         3.38876534605274    9.18603354669037   -0.33065652550190
H         4.93339333226238    8.90293736065711    0.46357283128414
C         5.09384365353077    9.86201295940304   -1.45417498712536
H         6.07220999890935    9.48576321408956   -1.80348748902381
H         4.46525247247916   10.03113479669963   -2.34255597791669
C         5.82261367228290   12.09861942765081   -1.55324775658016
H         5.15672768403086   12.30207042109208   -2.40770830557549
H         6.79981917793144   11.78404056617680   -1.95745189749250
C         5.97948489141877   13.34344285200932   -0.69602704457315
H         5.01207433510310   13.64123911220816   -0.30246033349976
H         6.39227331270283   14.15469047563528   -1.28913957044905
H         6.64182438164685   13.13516881515776    0.13936678996952

