41
CSD_code = LUFKOM | q = 0 | S = 0 | Stoichiometry = C10H18N4O8Zn | MND = 4
C         8.68941511416371    6.51174380537923    2.78701213576080
C         9.39474294543207    5.54825431807541    1.90092796343469
H         8.89033331988334    5.41485895712908    0.94586825042728
H         9.40054787944607    4.57545682423168    2.39990429975334
C        10.81007627917158    6.11924205134155    1.78355192955860
H        11.55346991968639    5.34701210739933    1.59961904125572
H        10.85236897023328    6.83853959068371    0.96435850431497
C        11.02612609267200    6.83487632720886    3.11842587176791
H        11.81648092245901    7.58117562270350    3.07013352939259
H        11.28511285247092    6.10921021127309    3.89028605571710
C         9.65896992519357    7.44850869540744    3.42490016660634
H         9.44973143767449    7.57198167062826    4.48783363626330
H         9.54697398480296    8.43111490824965    2.95910208646577
N         7.43041878023785    6.49588743056934    2.96793220858862
N         5.86170090289768    3.89604204074304    0.34788976333317
O         6.94746241581092    7.45976521540084    3.86220193539139
O         6.67139251210773    4.84568729408122    0.45984782266866
O         5.10521095200289    3.69174345587309    1.30908541185544
O         5.81072327259194    3.24720235043177   -0.64845384274977
Zn        6.06305979924908    5.10585847595362    2.32088557722251
H         6.05753434677706    7.16475843009417    4.10849871641702
N         4.69541069212817    6.49575142123272    1.67361212503311
C         3.43644750185641    6.51168491046354    1.85473084738658
C         2.73127985305493    5.54828932308048    2.74106317420681
H         3.23586410462721    5.41508893252297    3.69605416853944
H         2.72540248639079    4.57539866482103    2.24226905483252
C         1.31597539962727    6.11930521404009    2.85862378470103
H         0.57261847006307    5.34709930483235    3.04280036757158
H         1.27382922903267    6.83872090749088    3.67772261497640
C         1.09967371476717    6.83474366469669    1.52368808651424
H         0.30931733010265    7.58103987447353    1.57200758893916
H         0.84056244677597    6.10895743382863    0.75198362590589
C         2.46676728550974    7.44834742305590    1.21688551611318
H         2.67579041011209    7.57172695737371    0.15389891617276
H         2.57882110185455    8.43099933204363    1.68257456528163
O         5.17828186777109    7.45932978373652    0.77898185034483
H         6.06815777772054    7.16419555394015    0.53262931620361
O         5.45448171894280    4.84571118069546    4.18182327299793
N         6.26354905103759    3.89552979869654    4.29355965778168
O         7.02078906046009    3.69177024797030    3.33283447627264
O         6.31372787320291    3.24609028814695    5.28954592677840

