69
CSD_code = LUFLAZ | q = 0 | S = 0 | Stoichiometry = C36H26N2P2PtS2 | MND = 4
Pt        2.17287393164450    4.80034287583336    2.21771508854543
S         2.07947859431188    3.33443562179645    0.42042591582526
S         3.21354517253093    5.94096565559321    0.48899991460408
P         2.52370964737866    6.50186114278218    3.73253306999793
P         1.06036753087949    3.29403076059378    3.58257521317606
N         2.76963453069728    2.29748734380673   -3.12588157270850
N         4.50862904212725    6.30557277076237   -3.02429541021325
C         2.32584682469210    6.37557984372991    5.53328921239572
C         3.30019823328129    5.68520085621177    6.27074572480199
C         4.36510016862507    4.98697170224681    5.64858631095554
C         5.29960981759083    4.32891998334412    6.38830292946601
C         5.23407560978556    4.34051820956511    7.79785592040997
C         4.21699478097504    4.98427250401626    8.43305850970205
C         3.20989616289857    5.66125611663980    7.69788514920780
C         2.13812970629696    6.29141942597903    8.32448247553833
C         1.11764065331815    6.89291724934085    7.59332856430504
C         0.36651376138025    1.84006976348962    2.75719941050208
C        -0.94133156933998    1.88926750260538    2.25179214570896
C        -1.73667729379504    3.05901651738391    2.31462929798894
C        -3.00449329071379    3.07497151320922    1.81923293220110
C        -3.56048277670035    1.91473697894966    1.24091710365876
C        -2.82109585140653    0.77665040133534    1.14116447723780
C        -1.48704235276935    0.72804937161096    1.62104169769838
C        -0.69204046798982   -0.40449257411298    1.46971601444715
C         0.63959639478226   -0.42079542397529    1.87421945681419
C         2.91197118461429    4.54782777568721   -0.49819231238216
C         3.27967784727962    4.42556391373224   -1.80993955673244
C         2.99953918041522    3.25607715972282   -2.53609172634782
C         3.95436792860470    5.45887824455278   -2.48115273963368
C        -0.01184921522236    7.47735573148822    8.22244551648960
C        -1.02161961009468    8.01754986122355    7.48727686435044
C        -0.96693071935180    7.99439665117629    6.07752244994403
C         0.11152239470907    7.46447569463345    5.43767680433019
C         1.19642145957339    6.91579334001258    6.16516698438673
C         3.95662565238662    7.60870202928240    3.51349052484879
C         2.60801301900065    8.28425264586908    3.35711348026282
C         1.47896987376642   -1.54073425759049    1.64350296520769
C         2.79267599858948   -1.51553334820839    1.99712360869320
C         3.34412113383768   -0.36727336273574    2.60282490138281
C         2.56411811769283    0.71717693279819    2.86382122493560
C         1.19093528941154    0.72987245832124    2.51906472490165
C         1.38640747548549    2.75695921538621    5.29906947236296
C         0.08040035732233    3.50495666041022    5.11040686371276
H         4.40095944636390    4.96088993159252    4.56383193176012
H         6.09862427776719    3.78998425672792    5.90231289706428
H         5.99391090137258    3.82402560599332    8.36462607580855
H         4.14942869688890    4.98402447441566    9.51116117957151
H         2.08581641802576    6.29441064017153    9.40412300366621
H        -1.29803290214111    3.95707559533647    2.73583696709124
H        -3.59433045651944    3.97875921579485    1.85818340092085
H        -4.57201997290664    1.94661161796615    0.86455974647250
H        -3.22988736585436   -0.10970249363904    0.67824775332755
H        -1.10887698894919   -1.28094233010087    0.99351965540726
H        -0.05475618427704    7.47185123487162    9.30178804468162
H        -1.87917245602781    8.45719962408339    7.97375743794866
H        -1.79216333915929    8.39929553466343    5.51143054552121
H         0.14875041800633    7.42345354612382    4.35574213591793
H         4.54236575365390    7.47824195710659    2.61260784388149
H         4.54046804708879    7.85605173022348    4.39064703863909
H         2.29867918182078    8.97400460491981    4.13156784470361
H         2.32552119737037    8.58350792821274    2.35625803064639
H         1.05223498416933   -2.40825498827525    1.16165169821129
H         3.42869725973644   -2.36661471877809    1.80525773691832
H         4.39506440679744   -0.35560490151967    2.85062085879297
H         2.99267551515885    1.60952549211809    3.30727509189088
H         2.16753234436488    3.25926528296801    5.85375985498104
H         1.32490642568572    1.69512025610021    5.49848174259029
H        -0.83511417377404    2.93421215050421    5.19323932810978
H         0.01557423669711    4.49608529381073    5.53996255249381

