43
CSD_code = LUFMAA | q = -1 | S = 0 | Stoichiometry = C18H15MoN4Se5(1-) | MND = 9
Mo        6.86101415400668    6.74801097657386    6.05316241947678
Se        4.55634430887932    9.34468250487570    4.43257489549803
Se        5.52632236624870    8.34693128248058    7.43494229605371
Se        5.24186609109712    7.13798195565266    4.28247826672351
Se        6.68086787942703    4.23110741965343    5.24392998269594
Se        6.48967317945453    5.28588742274760    8.11762788260329
N         3.56803745476251   12.77906305404664    5.32272839201524
N         5.14030126830149   11.61435710713559    9.17155144380079
N         7.28171678541325    0.47663190904169    5.98418007236508
N         7.00675909825560    1.95814838186357   10.03442311934854
C         8.37368340621489    8.53460070528299    5.92989160185479
C         8.76957187244546    7.59928877783953    6.94070139163130
C         9.10913579027851    6.36975587690083    6.29454492105469
C         8.92037868333376    6.55727449645874    4.88761755383742
C         8.46928276297095    7.88125155609045    4.67091698899576
C         8.18429822756562   10.00544308303668    6.12453342206711
C         9.01293350493811    7.93669197572579    8.37761598855301
C         9.81209135825890    5.20943871707925    6.92714149822861
C         9.33713423102407    5.61886004438309    3.80063753453757
C         8.28030250594863    8.52451657742192    3.33460064047074
C         4.86626621301726    9.68247407351011    6.27944945973779
C         4.57354001728806   10.93569945622701    6.77520100080160
C         4.01406595078822   11.94351040512712    5.97646810285627
C         4.87446220108498   11.28517915160530    8.10207857526757
C         6.75382919423671    3.74990886803580    7.05615873584374
C         6.91674587543415    2.47358558504309    7.53447940259097
C         6.95538253688715    2.20102992556170    8.91153645751122
C         7.10486056705658    1.38157422051851    6.67144842757200
H         7.77863320848787   10.22659800464657    7.11271723233314
H         9.14623030815184   10.51421324248359    6.03037978433583
H         7.50758725504511   10.41966498616035    5.37518565570589
H         8.93266000210301    7.04706505203805    9.00327069670280
H        10.00987562476901    8.36300020074145    8.50655957888875
H         8.27943171743861    8.66332415082371    8.73250708654300
H         9.57821037528538    4.28038995462695    6.40440219967119
H        10.89342776391386    5.35920757383705    6.89396984689095
H         9.51299047221748    5.09261019668700    7.96996894823494
H         8.58631301983803    5.58072881034107    3.01015626665964
H        10.27896220206218    5.95787676289505    3.36418583952123
H         9.47449506772525    4.60876857209403    4.18175464236850
H         9.22180224090623    8.96252437894062    2.99650360193551
H         7.95458709116918    7.79340980372011    2.59555676773182
H         7.53272616628148    9.31753280003687    3.38086137852040

