28
CSD_code = LUFXOZ | q = 0 | S = 0 | Stoichiometry = C14H5N3O5W | MND = 6
W         2.04474657529597    4.68893365885526    0.91170805997582
C         0.44790632736184    5.27477006828034    1.96862650652648
O        -0.48467637063161    5.56690622545984    2.55510541571642
C         1.61515285642141    6.05922295211235   -0.48605691201632
O         1.34739969761489    6.80237040595135   -1.30684632016210
C         2.45974736856010    3.30741769939238    2.30071449450597
O         2.66033341660717    2.49597902621177    3.07555820423076
C         3.63028172740240    4.08563258711051   -0.15489878369329
O         4.50125879655784    3.71509394782514   -0.78877040140147
C         0.90927498027536    3.36703413908523   -0.04918616247380
O         0.25753955396430    2.60770713262176   -0.59937263198439
N         3.29952156410598    6.14554768306314    1.97335479888949
C         4.17911028742713    6.92253380516591    1.32813154300422
H         4.23605449263144    6.80021810035912    0.25261217170349
C         4.99424110622923    7.84537006958566    1.94661363875145
H         5.67485516787567    8.42947557917616    1.35007752124681
C         4.92691422828543    8.00990895271335    3.33777740953591
C         4.00185072375117    7.19369621271024    4.00856332363401
H         3.89245883721150    7.26369548522707    5.08009356885451
C         3.22988579281222    6.29956013617876    3.30229178383088
H         2.51796717130971    5.67266506636289    3.82703937944664
C         5.72057902484445    8.93292446892213    4.10088199477094
H         5.53779933668018    8.92541996849402    5.16940899507964
C         6.66291483715521    9.80635182906938    3.65876205696856
C         7.08520694304371   10.01169954244660    2.32665041277293
N         7.47152418653366   10.22631736603397    1.26810850679575
C         7.33700079291422   10.63613895100084    4.58972424162535
N         7.87765057764449   11.30310894045534    5.34792718406884

