51
CSD_code = LUFXAL | q = 0 | S = 0 | Stoichiometry = C24H24ClNZr | MND = 12
Zr        0.82340562109710    6.34519816663536    9.96862166697092
Cl        0.73632067810844    6.69617776385012    7.62131486403998
N         2.27567935057185    4.97847719226153    9.96694916239752
C         3.34730667418814    5.12477631916522    8.99106359410716
H         4.33232403778914    5.20376166412818    9.48729239208411
H         3.18532050774325    6.04840487977267    8.41224850410556
C         3.35989522174025    3.95951794789841    8.02148579502266
C         2.14782364520458    3.48444048143620    7.53168136781396
H         1.23052962763631    3.97670188081578    7.84452109604534
C         2.12095665990329    2.41164306943613    6.65983918571696
H         1.17710563734675    2.04945048432355    6.27935885655965
C         3.30300426279822    1.80157431249953    6.27009993887972
H         3.28165495770233    0.96298455546010    5.58978829958993
C         4.51151547371232    2.27019906747209    6.75432815151278
H         5.43536056345127    1.79764262830914    6.45351449808619
C         4.53946682552938    3.34346005846174    7.62927570681864
H         5.48566465157086    3.70680718588589    8.00672701056093
C         2.56440537201081    3.88419832270392   10.88988519139554
H         3.09188964355930    3.07351888974827   10.36411171524953
H         1.62721228060731    3.47387121619330   11.28797952960563
C         3.41443019899698    4.39767445320232   12.02826905429741
C         4.79189819350629    4.21668189368754   12.04451883035732
H         5.26180141353757    3.61922763828595   11.27593684879409
C         5.56374064120386    4.78194807851016   13.04642094192909
H         6.63388702074862    4.63506256048244   13.04791223479196
C         4.96643210423537    5.52928112771394   14.04607905394664
H         5.56788914643304    5.96782002481448   14.82817420920235
C         3.59186851298485    5.70712839854693   14.04407764326185
H         3.12299914351444    6.28178433016493   14.82963986759793
C         2.82259274290218    5.14936410309291   13.03878200669890
H         1.74560128075775    5.28048519287318   13.03548649352510
C        -1.36736458199606    5.28480121907393    9.28831636440984
C        -1.69019558009992    6.41790298173156   10.06505156704981
C        -1.27249228012478    6.16868889012022   11.39023303536866
C        -0.65934010557593    4.89858890143200   11.42541549525942
C        -0.72166385147094    4.34856630961665   10.12071187387555
C         1.33632161990061    7.93800029974971   11.81529725193797
C         2.53356769853646    7.77016248814104   11.07537384371228
C         2.34305292897130    8.36719124442961    9.81010455000307
C         1.04039931965016    8.90709183425235    9.76997852442530
C         0.42345551544582    8.65355879992318   11.00619629941978
H        -1.64941310409051    5.12606211293680    8.25462552758978
H        -2.27654508409603    7.26541614146226    9.72719887241129
H        -1.50497388879242    6.77583774293334   12.25675174078155
H        -0.38313600348200    4.36217492681005   12.32514918609672
H        -0.45465122943946    3.33532189553361    9.84341178028796
H         1.21280788662708    7.72942599949779   12.87122572433759
H         3.47188591853464    7.38972464000674   11.46171784315157
H         3.09855218384724    8.49208217383546    9.04340991018411
H         0.62823880833496    9.49649680030720    8.96049100460582
H        -0.52868826177754    9.05764071033386   11.32805589410337

