33
CSD_code = LUFXUF | q = 0 | S = 0 | Stoichiometry = C15H8N2O7W | MND = 6
W         0.59213546058797    0.13358635771975    7.74561056849956
C         0.32265271675822    1.75369699080498    8.89247630114100
O         0.17742914121584    2.64520431932287    9.58722610747382
C         2.53186541639276    0.59517120891448    7.56518920033787
O         3.64717861460344    0.82141834915449    7.49616844848523
C         0.87005082872524   -1.49770456107056    6.61926342135746
O         1.05136699348137   -2.45048893204931    6.02006123967863
C        -1.34357100559008   -0.34196722316717    7.94264875170909
O        -2.43299660217709   -0.63618239300769    8.10130346074080
C         1.01220860902623   -0.93094269182617    9.37123616261742
O         1.25493039509351   -1.54023603725643   10.30678127757635
N         0.13607375034644    1.32125393224562    5.94809986895828
C        -0.88962478115448    2.18083319875165    5.91459251895347
H        -1.49510660854523    2.24754796859573    6.81124908456782
C        -1.20432887936654    2.96504135756016    4.82540123028088
H        -2.04750691953128    3.63286331741348    4.87892004686434
C        -0.42604284672468    2.88199368268584    3.66258822984557
C         0.63959751367247    1.96961742064828    3.69912068678671
H         1.27891914760704    1.84846584152609    2.83820831020179
C         0.87785151038138    1.23141698205843    4.83708627919567
H         1.70527665762013    0.53135927294479    4.86165032371199
C        -0.64598513319292    3.65073217847716    2.46702719207522
H         0.00417084079840    3.41661089042277    1.63036040354291
C        -1.54220937304730    4.63827479182405    2.23106854125676
C        -2.48703743571149    5.15393608744456    3.13834382481403
N        -3.26660692417550    5.60311277961536    3.85118692071749
C        -1.53530350488104    5.26876413084702    0.87498804369943
O        -0.78616150123974    4.94086721068362   -0.00968029802586
O        -2.45203029349677    6.22880115787557    0.77868455822293
C        -2.53414041575098    6.90069180785299   -0.47038103561059
H        -1.56190519809243    7.31736055619818   -0.74100966713953
H        -3.26883330712599    7.69036267468938   -0.33924827357815
H        -2.85071686647629    6.20713737209557   -1.25202172897465

