86
CSD_code = LUGBEV | q = 0 | S = 0 | Stoichiometry = C33H41Cl2FeN5O4 | MND = 5
Fe       -0.60960777998259    5.59287023232490   -1.81264753668744
Cl       -0.06948450490358    6.06030968258016    0.12054356974477
Cl        0.88039011990760    6.22242160793291   -3.14899229878923
N        -1.57752932932633    4.96517110693441   -3.15283892389902
N        -1.78119689618416    7.17868419360597   -2.10638627732287
N         0.00536115738048    3.69615083556255   -1.76720947900227
N        -2.15777024046090   11.61802708725158    1.27370756410825
N         3.08533291267333    1.38384978539121    2.28693994593435
O        -2.95755249045344   11.55678771497461    2.18575282549096
O        -1.46179238830301   12.58375212896789    1.03485058069761
O         4.29121054004794    1.35557011749782    2.14855659446598
O         2.49250793082146    0.91882055283050    3.23958469434812
C        -3.40308870673073    8.15607199100112   -3.70529316602500
H        -3.46285004433653    8.98066057689241   -2.99926242054783
H        -4.40341859379848    7.77288221451971   -3.89848013833757
H        -2.99781282690974    8.52916363120486   -4.64577233732212
C        -2.51802408885607    7.07244652526733   -3.17928345005032
C        -2.42960653733199    5.79269001300435   -3.82016397284951
C        -3.09759489456674    5.36242662160560   -4.96170987448616
H        -3.76210477066499    6.03186469297468   -5.48277967571544
C        -2.88414056751211    4.07332062694764   -5.42724590910740
H        -3.39115506105117    3.72683117299798   -6.31348972238463
C        -2.00260676388086    3.23760027632145   -4.75744728996791
H        -1.80867889761606    2.24107111819099   -5.11881603157900
C        -1.35413958985384    3.70454645949019   -3.61908993281898
C        -0.42304170100265    3.00069787372370   -2.78593984555832
C        -0.01877865529393    1.59073824217235   -3.07374596684185
H         0.54687598702639    1.17566795755856   -2.24317846121056
H         0.60543330342488    1.56975991781818   -3.96706646366273
H        -0.89405083605586    0.97127506490768   -3.26034214528071
C        -1.84922712854238    8.30455244717888   -1.27277907343742
C        -1.06068815917067    9.43929692911146   -1.52322225842561
C        -1.16259867788958   10.51824963165224   -0.66252508243955
H        -0.57569088134389   11.40948051448511   -0.81769256790794
C        -2.03576310487864   10.47492470252739    0.41324094582589
C        -2.79698547464851    9.34370247039471    0.67097372875179
H        -3.45525725264379    9.34977002918511    1.52471551932218
C        -2.70407520508069    8.24095008134405   -0.15615348671446
C        -0.09009847648924    9.48971153655455   -2.67563680483380
H        -0.21158232532852    8.59067082579132   -3.28450082370040
C        -0.33242738366495   10.71059956439765   -3.56462989448671
H        -1.36498237231888   10.74267685877977   -3.90719338829253
H         0.31788247643550   10.66230429272837   -4.43432201857064
H        -0.11889878283058   11.63421070617303   -3.03339053264089
C         1.33814867838630    9.48699283821336   -2.12527600683553
H         1.49010195706226    8.61766694283700   -1.49005364252711
H         1.53405053837087   10.38327171566587   -1.54198999554563
H         2.04906644437259    9.43654349104809   -2.94536297669356
C        -3.53076778300314    7.00853928301309    0.12600045497195
H        -3.13771898333927    6.18254115006808   -0.48458134257460
C        -4.99138699470758    7.25495322488445   -0.26128185163099
H        -5.07851619570776    7.49740299075922   -1.31794273635936
H        -5.40077429479154    8.08090904908989    0.31538483046425
H        -5.58690662542230    6.36733160824649   -0.06091620374405
C        -3.42166760923162    6.59274047033200    1.59227465674948
H        -3.93282024510967    5.64543236480326    1.74503521503513
H        -3.87565025426199    7.32852797039348    2.24953112750617
H        -2.37681197409126    6.47470390630447    1.86565121737074
C         0.80505459812595    3.12669420973730   -0.76596918111523
C         0.16108415616208    2.65089464924027    0.39208343192051
C         0.92731227213891    2.07526975375115    1.38720771015173
H         0.47640424531814    1.67683787824107    2.28164886364237
C         2.30617855624692    2.00015015147602    1.25009746580225
C         2.94119790700173    2.50889500930589    0.12781174102479
H         4.01613902347112    2.44719899400764    0.06839756257390
C         2.20216673263281    3.07297166824997   -0.89733035856654
C        -1.33998639904859    2.73507978663270    0.53949013310915
H        -1.71913594779294    3.44726308960371   -0.20814069448987
C        -1.97138471265440    1.36496840090808    0.27770476169258
H        -1.73580509551062    1.01236916378508   -0.72379761315195
H        -3.05272684422841    1.42594434795124    0.37629222273478
H        -1.60111220023663    0.63597304065443    0.99466529316353
C        -1.73575745032369    3.25802783646896    1.91945764668587
H        -1.23027604500601    4.19920144298712    2.11721028481957
H        -1.47955461813352    2.55000843354301    2.70219694296630
H        -2.80972248548084    3.42332540489018    1.95557444798642
C         2.90607936154445    3.64642847008826   -2.10077328225130
H         2.15999397299703    3.96675853269068   -2.83190967835992
C         3.82091901135826    2.61573725207406   -2.76438355129163
H         3.27037455186452    1.71027821492857   -3.01249587396924
H         4.64849969661155    2.34595504274388   -2.11384532827148
H         4.23241915979611    3.03098513342766   -3.68082980061630
C         3.69638675013328    4.88529771148866   -1.67238511705843
H         3.03400461168498    5.60072876811005   -1.19098183344039
H         4.13509778988456    5.36241771361318   -2.54438900100104
H         4.48930970513265    4.62185228099061   -0.97681865872647

