63
CSD_code = LUGBIY | q = 0 | S = 0 | Stoichiometry = C28H28Cl2NOP2Re | MND = 6
Re        6.82005316703768    1.66241079002588   12.82069138056747
Cl        5.32665656160524    1.42333363935628   14.62467578982631
Cl        8.52614040807308    2.83209973390818   11.67150596762531
P         5.37729788808673    3.37115659963260   11.99689528690899
P         8.54826973145536    1.02678961992363   14.33674439909547
O         7.25890158050496    3.77341092529929   14.34008223702535
N         6.48874859356750    0.26439268278908   11.86614312338783
C         5.45250168753022    4.76311541953347   13.20826606539459
H         5.04759497952057    5.68178924349211   12.77982458314554
H         4.83267038200053    4.46044426964902   14.05965506419108
C         6.88877593387708    4.96447600219974   13.68566881832537
H         7.56357859847600    5.16218416654131   12.83654206683364
H         6.95303475118359    5.81122866094180   14.38822740995588
C         8.54795624695573    3.73860931385865   14.90649243584822
H         8.65553040466630    4.55551076300072   15.63842023554806
H         9.31507647290198    3.86582524905760   14.12493318743197
C         8.68163918767221    2.37887053881001   15.58800854619897
H         7.84129215073485    2.24086274896517   16.27743034588975
H         9.61720924686677    2.31059602715966   16.14589235295455
C         5.78535436601998    4.04236900806614   10.36064254448471
C         5.84416738077330    5.38744621483219   10.02543834047567
H         5.67125653765241    6.15589643490035   10.76629778311279
C         6.14518494747047    5.75565518475890    8.72477101476793
H         6.19813455064074    6.80331763703629    8.46530189417561
C         6.38405905197055    4.78995998313473    7.76258271003246
H         6.62250122010360    5.08662335166742    6.75177572700851
C         6.33101034906855    3.44523678706565    8.09758386034620
H         6.53114580511528    2.69217372881043    7.35052224170224
C         6.03555142680028    3.07037519600510    9.39299246538112
H         6.02245646225135    2.02665983366030    9.69175300695918
C         3.60287851823122    3.02796959543794   11.83776235706473
C         3.18552474528226    1.70203543484033   11.86802994757856
H         3.92500378930526    0.92149137519942   12.01059050195282
C         1.84147041834974    1.40408345917223   11.72874614001110
H         1.51434398762977    0.37596329354191   11.75938603041003
C         0.91921235885135    2.42258106161671   11.55393631970840
H        -0.13049495199209    2.19026372396186   11.44985058163005
C         1.33840433023114    3.74323568422644   11.50811788814815
H         0.61782588604813    4.53533938730833   11.36423514724147
C         2.67922369004386    4.04986270099616   11.64539545206250
H         3.00639005562388    5.07965292819736   11.59769083384577
C         8.33712338588183   -0.47343609474966   15.33519544558012
C         7.37374648015746   -1.39383016847227   14.93752448678524
H         6.76448451322141   -1.17392054748514   14.06743470701878
C         7.20060308039154   -2.55993076541829   15.66193270727019
H         6.44786569581040   -3.27210283310567   15.35984966263734
C         7.98802437560827   -2.80980192741282   16.77366645631975
H         7.84973760424611   -3.71791373808691   17.34190219999015
C         8.95828982203288   -1.89840469727544   17.16046578126046
H         9.57606110188133   -2.09900322797498   18.02392029105049
C         9.13889810147083   -0.73145504695047   16.44187937169060
H         9.90404792991739   -0.02699030700458   16.73834332840497
C        10.19638940879986    0.77900331187328   13.61667444597401
C        11.39024899356552    1.25029905173993   14.14430438376503
H        11.40543330203042    1.85078944519876   15.04342773004245
C        12.58325146463738    0.96134144466510   13.50333448416663
H        13.51213075418477    1.33424311318635   13.91077763378456
C        12.58824823664549    0.20519617844041   12.34399866581807
H        13.52308069717373   -0.01049632910367   11.84781793762996
C        11.39571894698224   -0.26378430580689   11.81372073650105
H        11.39798321142774   -0.84258270683821   10.90253431031575
C        10.20190770912560    0.02250239581662   12.44566965619433
H         9.25149228661759   -0.30372064381987   12.03432349355049

