100
CSD_code = LUGLIJ | q = 0 | S = 0 | Stoichiometry = C38H44CuF14N3 | MND = 4
Cu        9.01936872245514   11.12065189209715   12.29689831848984
N        10.07245543716179    9.47648193317124   12.11085213360110
N        10.76442374659411    9.46195267846989   14.36474327936081
N         9.40559947174500   11.37887714127616   14.19327082914961
C        10.76221669185385    9.04273434178404   13.10802057092370
C        10.12275500613953   10.51748325065941   14.83416383961848
C        11.78673703255462    7.89359366830778   12.98646992195485
C        11.53590112219627    6.76247626686181   14.02939168323647
C        12.00724009774896    5.36854719377014   13.51921806962738
C        10.36238200796403   10.69285292867081   16.35034218044811
C        11.03211564485082    9.47089440785727   17.03332366971023
C        11.04157681006718    9.59116055293442   18.58795647500974
C        10.10555177667188    8.93798722818195   10.80569825039436
C        10.98081398748198    9.48727966778491    9.86362500369973
C        10.92237305540684    9.01324329216521    8.56014151340115
H        11.59448998001953    9.41550394225107    7.81769460675043
C        10.01834554970017    8.03252771697898    8.20151711676000
H         9.98267592394984    7.67812871821937    7.18238168391515
C         9.16738767303874    7.49326368520146    9.14900409409438
H         8.47589969262872    6.71964549916390    8.85738307425357
C         9.20084129010082    7.92328877205995   10.46657939367258
C        11.97623646532145   10.55804546468234   10.25006214504635
H        11.86480543502283   10.77531727879594   11.31825865769566
C        13.40668665443297   10.06781249244696   10.01355079307507
H        13.58097882446144    9.13137574718787   10.53714933939517
H        14.11866646273455   10.80373503546184   10.38005103682552
H        13.59163393841155    9.90708240282672    8.95455980460028
C        11.71578525341256   11.85865980472859    9.48512147861378
H        11.78498755665566   11.69980372012768    8.41176207695013
H        12.45294364671263   12.60685967344096    9.76734454915197
H        10.72681420938360   12.24932660778146    9.71845067817866
C         8.28963636825629    7.33823924687340   11.52300412596473
H         8.80012050888324    7.40286976987662   12.48862122740714
C         7.96221302971927    5.86627086452058   11.27768491376243
H         7.28011673715613    5.74632576247459   10.43956752966434
H         7.48520457247522    5.44953599731838   12.16145078211274
H         8.87052523528658    5.30231473073126   11.08101956435940
C         7.00329766054242    8.16439774848063   11.63233942688282
H         7.23634495857138    9.19982136092639   11.88569779274402
H         6.36606960719163    7.75650392608827   12.41334554347689
H         6.45394347649750    8.14244655104386   10.69284397505324
C         8.86695133190222   12.54281428935451   14.78791719875742
C         7.54557254839471   12.52667068337103   15.25119567073306
C         7.00621490401305   13.71181567556151   15.73198824139562
H         5.99030115428152   13.72519109971838   16.09400936748603
C         7.75164561295229   14.87539737290266   15.75064992777857
H         7.31625572857224   15.78850994510872   16.12792028947393
C         9.05401409286029   14.87231443520961   15.28738059727396
H         9.62313893283379   15.78757819639257   15.30625471586731
C         9.63955953131442   13.71143871236380   14.80337806664472
C         6.71507382073713   11.26331925331366   15.20195419611235
H         7.37860620514981   10.41621609844857   14.99874813993232
C         5.69498779807507   11.34541972753749   14.06124736580851
H         5.04843135023138   12.21107238870077   14.18859703903134
H         5.07607476701168   10.45112796635786   14.05255703626326
H         6.19907145278107   11.42207160827486   13.09920262349105
C         6.00574130247561   10.99527273971326   16.53030239725173
H         6.71395368656265   11.02913639643459   17.35322880059703
H         5.54856616766702   10.00876718028934   16.50881186012171
H         5.22259264353643   11.72649138033625   16.71240203780538
C        11.05284229288746   13.71362340301055   14.26200147830883
H        11.44960285211464   12.69511120651120   14.30782041227154
C        11.04592840608329   14.13672263641801   12.78954014412324
H        10.46234935936347   13.43256122252346   12.19574269475398
H        12.06230881571889   14.15190426015930   12.40273826808591
H        10.62003560170103   15.13226718472500   12.68096893642296
C        11.99133107372922   14.60553673451777   15.07385352136411
H        11.77003304721124   15.65883705177619   14.92135196819178
H        13.01878304440415   14.43013567017061   14.76385512341570
H        11.90888444957780   14.37427786282877   16.13240130465426
C         6.20190197249802   14.33789547380708   11.26620972978505
H         6.40858194235296   14.47301065984609   10.20743300874996
H         5.87229426352097   15.28622277687693   11.68278467581848
H         5.39772021575841   13.61362383301985   11.37085384981152
C         7.45304422652127   13.85888275522235   12.00476809058708
H         8.25045431719000   14.59890232417454   11.90223796998376
H         7.23610310305807   13.74997713418432   13.06678495499974
C         7.90671299562739   12.58939140378105   11.43340738963919
C         8.06579932212012   11.69331590611810   10.59869499180216
C         7.94744443978659   10.96898743617894    9.33316873401060
H         7.49268470110008    9.99243757953925    9.50516751574060
H         8.93739440256603   10.79628588564553    8.90820476720280
C         7.09425252696703   11.77876598419129    8.35556763750605
H         6.09983683837820   11.94507955449076    8.76214182440863
H         7.00294708328463   11.23936451844897    7.41629830220367
H         7.55264726340233   12.74487964924409    8.15920001175840
F        11.83436264055756    7.31936858154519   11.76027349818538
F        13.03168184166730    8.38033840036910   13.19204190317379
F        10.22056462074976    6.65802925915978   14.31543374006953
F        12.17852238984685    7.01848331657964   15.17474656291464
F        11.20492527897421    4.91140978722819   12.55869389665490
F        13.24528736071035    5.40996994695699   13.03910596522158
F        11.98680635883783    4.48061763117522   14.50876218183782
F         9.20527159803208   10.93992860327921   17.01231685604815
F        11.15045135568323   11.76980334629635   16.58997540286153
F        10.37094866597335    8.33663126713101   16.73679207232126
F        12.30334606818387    9.34624008775289   16.62149409643899
F         9.81933750054455    9.42597557926630   19.08940498745145
F        11.49398690239862   10.77114641258840   19.00246183571631
F        11.82147450807532    8.65411356013873   19.11949297464932

