19
CSD_code = LUGLAC | q = -1 | S = 0 | Stoichiometry = C6H6Br3N2OZn(1-) | MND = 4
Br       -0.71775762920110   -4.04329324335787    3.88128937118816
Br        0.77731307710509   -0.53312992601465    5.91882012299952
Br        1.54908283231615   -1.31317180689946    1.71701783070805
Zn        0.41018477963677   -1.75042321941549    3.82404607425223
O        -5.26052845081429   -2.82133578620307    1.03080278413885
N        -1.61113223109067   -0.83900996184943    3.28965061228718
N        -3.42945960639662   -4.06311958176484    1.50628809076673
H        -3.78625794605074   -4.85363719331086    0.99519808115659
H        -2.62195071379621   -4.20522610443620    2.10021387279330
C        -2.35458094092166   -0.16970570970887    4.16017806017277
H        -1.81894615940598    0.46655880251522    4.85158947780713
C        -3.73539078729277   -0.27668325389721    4.20314072077101
H        -4.29972058619201    0.30427872104462    4.91575869278434
C        -4.35861370953896   -1.17334142045447    3.35244051822060
H        -5.42605059305828   -1.33592970950114    3.38141018733334
C        -3.58082869131761   -1.89525770824922    2.45466742411979
C        -2.21359158152731   -1.65025911548132    2.43112951485202
H        -1.58008959491312   -2.12562898338214    1.69428760781693
C        -4.18838146754893   -2.95388479963339    1.58957095583972

