100
CSD_code = LUGLOP | q = 0 | S = 0 | Stoichiometry = C38H44AgF14N3 | MND = 4
Ag        5.83982607266180    3.09812190853073    5.12848452026404
N         5.12281562279092    3.08127428455312    2.95009256279599
N         3.66162617846387    4.92071467206237    2.83906350303791
N         4.45513315383132    4.90774996201533    5.05229520138526
C         4.33313431083598    3.89484054042605    2.34242920810343
C         3.70609546712098    5.32788496212122    4.09999469017666
C         4.02850313276990    3.70267554103940    0.83693814557644
C         3.30384575834102    4.90411006150690    0.17548745929040
C         3.24077567954733    4.77671876964935   -1.37703433656655
C         2.66072385233322    6.45262926644071    4.28371502942918
C         2.87033703107353    7.61654306478028    3.27092645259709
C         2.37631778026546    8.98433487345459    3.82655612434755
C         5.70698473662701    1.94614038589972    2.35036726702531
C         7.00812604457840    2.02999881978997    1.83562120633144
C         7.60766381879364    0.87276332998773    1.36171962314343
H         8.61085241222050    0.91592892972462    0.96775016574930
C         6.93683878169812   -0.33550024848000    1.38217025881729
H         7.41625820572402   -1.22632789369953    1.00476671068715
C         5.65194729032992   -0.40372128113332    1.88798955355998
H         5.13969007751816   -1.35227562644962    1.90069421872606
C         5.01306647382208    0.72671793244038    2.37551526951929
C         7.75821565528478    3.34274210593203    1.85140443080077
H         7.03920337307891    4.15291747418447    2.00987850525105
C         8.48695503276724    3.61823891485478    0.53704849450273
H         9.31821637130472    2.93306683564077    0.39210084920703
H         8.88139943056250    4.63174505187363    0.54207909855398
H         7.80044920414345    3.51966028734573   -0.29928871505911
C         8.73933548595975    3.34582490978515    3.02783379333143
H         8.19442108025862    3.21524706626608    3.97285745219443
H         9.28061636876224    4.28800005384710    3.06793351572990
H         9.45755703342509    2.53479561636981    2.92639280749487
C         3.63724517755437    0.64382022168763    2.99920259262909
H         3.15633865339546    1.62273808344762    2.91910162265215
C         2.72468910120678   -0.37172937894651    2.31462522717230
H         2.71744818087489   -0.20507052491938    1.24089046229105
H         1.70891764625566   -0.25642861660079    2.68555176017019
H         3.04140867312100   -1.39246358900508    2.51466393143993
C         3.78626053740242    0.31924164261163    4.48913221920108
H         4.29260543372360   -0.63479921956939    4.62246259591812
H         2.80921686683412    0.26641543549282    4.96315488081328
H         4.37381281032931    1.10595119620286    4.98891394418484
C         4.47922514743887    5.39889919125433    6.37182252290941
C         3.65878959081210    4.81391306573764    7.34510327215818
C         3.78632342611962    5.24015518088441    8.65994199376723
H         3.15979614067936    4.80283000851150    9.42247794352902
C         4.69656869594804    6.21939934433367    9.00741138539973
H         4.78057699243663    6.53962443047104   10.03507766719785
C         5.49647053403146    6.79270240608095    8.03566628529236
H         6.20064902931143    7.55945866705849    8.31591144895817
C         5.39850694172259    6.40421474337794    6.70934071072945
C         2.66628490749942    3.73084320484930    6.98733114675887
H         2.69068405841848    3.57137350572990    5.90311748969039
C         3.05621071835406    2.41233634828197    7.66241222687215
H         4.05464154052683    2.10161434499918    7.34164839666598
H         2.34932577163210    1.63040980124902    7.39516637278216
H         3.05879338375903    2.51704091829087    8.74479690505933
C         1.24323294976984    4.14087537504084    7.36871717816177
H         1.14121520921893    4.24483244217491    8.44599091533138
H         0.53447975248396    3.38991508571610    7.02688856627805
H         0.98690407176580    5.09083298228918    6.90668291872374
C         6.29403981073403    6.99384937167971    5.64371666452862
H         5.79372695164411    6.89423746080220    4.67619153473413
C         7.59236264595679    6.18262111251663    5.58072264318191
H         8.12986267506157    6.25174840443274    6.52460451074191
H         8.23278743517845    6.55474868612985    4.78500861628293
H         7.36335348775497    5.12535080400348    5.37896425077289
C         6.59107791481459    8.47655380987624    5.85932399066325
H         5.66895808253975    9.02503666894332    6.03407300330967
H         7.06961222921651    8.88424905710597    4.97215366083801
H         7.25913985024303    8.63014046380901    6.70326200201784
C         9.03105415762226    0.08501510495682    5.55301099801413
H         9.61440539385413    0.92487042765462    5.18405974246555
H         9.32747616028057   -0.80945805980161    5.01152541191229
H         9.25554621677369   -0.05338048533537    6.60801387807613
C         7.53698120319694    0.34023378993905    5.34956648516714
H         7.32387619520844    0.44555688846561    4.28296624273495
H         6.96106339860740   -0.51024601989738    5.72567334311091
C         7.12692258321041    1.53547910426669    6.09259388290694
C         6.98971995153924    2.41558458821483    6.93604594159698
C         7.03164680741218    3.21095212349368    8.16494076038789
H         6.07126428451222    3.70086301455702    8.34156090885891
H         7.78771200962962    3.99277731144969    8.05560944244375
C         7.38177580914882    2.31172739557425    9.35191588751693
H         6.63122325839200    1.53501829339644    9.47680261852434
H         7.42359342361149    2.90491941323286   10.26164275199804
H         8.34779680795672    1.83611866648545    9.19963634092098
F         5.16162862223755    3.47502015683665    0.12401058754842
F         3.25676123713835    2.60330569452513    0.64247475760373
F         3.95031401039144    6.05487260763940    0.44237202143405
F         2.04628988591142    5.00537058414703    0.63294192357014
F         2.82560060763802    3.57629574268630   -1.77287453354291
F         4.43550438689184    4.99265882220779   -1.92463196858990
F         2.40156548674211    5.67578398667640   -1.88453511208324
F         1.41413787503303    5.95984124400307    4.10575933636249
F         2.65018599458911    6.98795514355593    5.53066700539324
F         4.18103362389643    7.75891396199950    2.97520088409720
F         2.22246608424342    7.37799913457129    2.12452306146162
F         3.18906485791484    9.43581188362475    4.78201776306040
F         1.15059089394387    8.90146210284157    4.33274773231114
F         2.35332482979951    9.90103467129793    2.86285337902580

