83
CSD_code = LUGNOQ | q = 0 | S = 0 | Stoichiometry = C40H36FeN2S2Si2 | MND = 4
Fe        6.26778799623916   14.43762355953727    3.22382352626592
S         5.43336155580478   16.47938833326801    3.93847858281410
S         7.42044723115474   12.56949691517816    2.92927740143251
Si        7.52730663107415   16.66473279424083    4.22272205210561
Si        6.67341841648786   11.23211257261874    1.46761219805777
N         5.92984931717892   14.74372644611508    1.50030394964468
N         4.71118209340731   13.64300406747818    3.60312332338829
C         5.80386016496554   15.00551106270775    0.38308168851924
C         5.63870691233080   15.33602489370320   -1.00122041546648
C         3.74614933683226   13.11351200563081    3.94872857601759
C         2.54925538753770   12.46715852058431    4.39992129438291
C         7.96850024689312   18.40229255680931    4.81373959152982
C         7.09891845875136   19.13346481805908    5.61230738728461
C         7.44355195946422   20.39370402496544    6.06581022808557
C         8.66926382565615   20.94083758066653    5.72542866058469
C         9.54291883662026   20.22478922097477    4.92430587482433
C         9.19147137442900   18.96583762507338    4.47292630578049
C         8.41003413180094   16.36231224792524    2.55534030701840
C         9.36660118310642   15.36582747914487    2.38548001456152
C        10.02668070723372   15.21482959237274    1.17734823239698
C         9.73622511575052   16.05612176815958    0.11746934347373
C         8.77586512139889   17.04380928248248    0.26658788785065
C         8.12132333753421   17.19266491485345    1.47466089535966
C         8.21417117779013   15.37161563944314    5.44445236901177
C         7.41954369560231   14.31675092112854    5.88082694780906
C         7.93774460934463   13.31405074013540    6.68271668123069
C         9.26494881483965   13.36105692488205    7.07108083170082
C        10.06462348691790   14.41774661440274    6.66541933736266
C         9.54263752674209   15.41101650376652    5.85802592825772
C         4.80895879614236   10.88094062093564    1.57331971222605
C         4.32923241478955    9.68547732476971    2.09763891337604
C         2.97341253326759    9.40713400905453    2.12000207931841
C         2.06909581754349   10.32509784689243    1.61214744123323
C         2.52968893592525   11.52612137636977    1.09700888904437
C         3.88537693556805   11.79900866478905    1.08256678748972
C         6.99305127050097   11.89209415569898   -0.28513202973860
C         6.21811898964383   11.48056774213571   -1.36505559701562
C         6.47518630832593   11.93942572376229   -2.64492418929110
C         7.52103399667030   12.82014630987908   -2.86860205365337
C         8.29906614861903   13.24238632900802   -1.80363683323487
C         8.03331920580393   12.78204024882120   -0.52687302553697
C         7.59011154752458    9.59037511529029    1.68361610679126
C         7.40164863400567    8.57262893274093    0.75432952276882
C         8.03604820171429    7.35248706025845    0.89536396199057
C         8.87594918948469    7.12984177736935    1.97432428466710
C         9.07784525717834    8.13459815992721    2.90489132842885
C         8.43895054488224    9.35296901622318    2.75802785451503
H         6.56091916271217   15.77993440342874   -1.37514942044051
H         5.42333838333862   14.43367574021616   -1.57436633603470
H         4.82108105251833   16.04797543888156   -1.11476049210022
H         2.40692662093584   12.66175561307647    5.46290180586426
H         1.69531334933551   12.85735060418315    3.84726930393572
H         2.62480101131071   11.39308163078153    4.23013822308063
H         6.13962809485770   18.70759879136806    5.86573401319282
H         6.75618188989899   20.95201199171995    6.68515828335821
H         8.94214536700127   21.92474602962720    6.07945680454043
H        10.49829040915452   20.65024453283727    4.65062871805184
H         9.87185085595316   18.41431556453623    3.83858207050682
H         9.61021401256858   14.70942049335365    3.20928013600516
H        10.77632750463547   14.44388636878840    1.06736212394271
H        10.26278216702370   15.94958592845963   -0.82057072207910
H         8.54904997809849   17.70766864607291   -0.55678873734863
H         7.38000012486163   17.97037415271436    1.59523539739355
H         6.35793410211510   14.29725733351842    5.62557907038205
H         7.30643243299982   12.49761499279349    7.00175528306937
H         9.67567696974181   12.57866710069502    7.69262526806441
H        11.09940423692106   14.46225683955510    6.97436755267515
H        10.17013933718453   16.23213044367763    5.54069663625152
H         5.03143631827386    8.95975747978543    2.48262751902028
H         2.62131873553352    8.46881360579756    2.52556836839098
H         1.01083186736304   10.10522213940758    1.61742907710542
H         1.82977434699087   12.24854472723701    0.70100373014575
H         4.23919009730449   12.73977465844782    0.68628143013207
H         5.39869793123489   10.79500068074651   -1.19921755039981
H         5.86238911786526   11.60701344190050   -3.47142501626081
H         7.72692363843139   13.17459811917820   -3.86871961685497
H         9.11602571589884   13.92966212866548   -1.96978653499310
H         8.63494688089965   13.12039827140897    0.30380416714239
H         6.74811234675891    8.74157075039145   -0.08968290000463
H         7.87652457369032    6.57219309666148    0.16442027309287
H         9.37174294148451    6.17618804160426    2.08717320877470
H         9.73414100458232    7.96712984136547    3.74718143433630
H         8.59596404018246   10.13922033717479    3.48161527311542

