60
CSD_code = LUGRIO | q = 1 | S = 0 | Stoichiometry = C16H35N3NiO2PS2(1+) | MND = 5
Ni       20.19616544619335    8.21669744870543   -2.66022912714203
S        20.30894022733202    7.62536993132288   -0.47213114332767
P        21.79292296928360    8.97195553520662   -0.45219423083344
S        22.01957404786394    9.62220237995730   -2.33581406811976
O        21.56486373670270   10.15939795544592    0.56730820087957
O        23.09542225268203    8.42389071863643    0.25243456779543
N        20.03177309201391    8.71508486979127   -4.50322075359201
N        19.35052728836846    6.35887001930338   -3.08569241053429
H        19.53140591496386    5.88476744953160   -2.19677057715217
N        18.15169764713947    9.24944853533720   -2.37219719497955
H        18.20718317332912    9.34548070294632   -1.35421497911792
C        19.97669540275818    7.93127736398776   -5.50929827574428
C        18.07419745363326   10.59831907395618   -2.94760140090216
H        18.79109375203102   11.23898899718191   -2.42753712618456
H        17.07041539390118   11.02370933689486   -2.80800512210529
C        16.92771853798638    8.48059395895489   -2.63906922455818
H        16.68324720640403    8.57451862340934   -3.69871796040647
H        16.08795041713814    8.89708548228722   -2.06567905888814
C        18.41634386159134   10.60064356740217   -4.43826927529856
H        18.30384469239329   11.61790169741814   -4.81302041777827
H        17.72173139521419    9.96255924494035   -4.98531392308556
C        17.90864111654384    6.22467750534992   -3.32846996307647
H        17.62079963298934    5.16861754817809   -3.27836521579083
H        17.67871973603587    6.59980738538156   -4.32655827270733
C        20.07646899559552    6.43316839136235   -5.44775789638827
H        20.91825246899026    6.14248791055813   -6.08190679942114
H        19.18121853056891    6.04344324359215   -5.94054091017986
C        19.85842565238068   10.15031330659089   -4.70474263309887
H        20.14496413287977   10.43568233708714   -5.71799698559585
H        20.52063354053392   10.67549916694005   -4.01383074693389
C        20.24359348866550    5.73890018283547   -4.08730593239043
C        17.08362632497849    7.00016835376881   -2.29883150194757
H        16.08775104586618    6.55884693572344   -2.25576719178247
H        17.54101250361745    6.89642523151580   -1.31329243747878
C        19.79236048104251    8.41467817772698   -6.92146339212722
H        18.90144751203643    9.03092356333560   -7.01735556717668
H        19.70884359821033    7.57898402935259   -7.60911462293536
H        20.64939180138178    9.01461643949942   -7.22618747707823
C        19.95684762834165    4.24123729489056   -4.25052218940566
H        18.98260635536901    4.06000817237382   -4.69537354063112
H        19.99762273694666    3.74004771922620   -3.28645850513219
H        20.70627629957155    3.79019612272962   -4.89458708086129
C        21.68017730050652    5.91745802572998   -3.58089933683505
H        21.81819536365743    5.39126603568904   -2.63775965098805
H        21.89873069893753    6.99011992402122   -3.44213022986846
H        22.39293836857385    5.51904544453111   -4.29735023708956
C        23.66305094375358    7.14833448666046   -0.03986411700738
H        24.19448046223593    6.86199485580679    0.87066594177843
H        22.85893755418545    6.42393468330746   -0.22113450854431
C        20.68628963799098   11.25401231096220    0.31170524985542
H        19.68433262539947   10.98422919145700    0.66423433562478
H        20.64785490994223   11.44602771581965   -0.76889817673229
C        21.20752168266896   12.46996212350364    1.05212898662642
H        20.53511311553716   13.30847693002713    0.89546425901376
H        22.19782865221099   12.73308835761981    0.69031550484479
H        21.27124151584373   12.25689906371321    2.11546182433249
C        24.61358051302310    7.21661466896093   -1.22120139519990
H        25.06580105829683    6.24189113384023   -1.38036010359668
H        25.39848085754870    7.94196688268524   -1.02358845573720
H        24.08722724824227    7.51468625505206   -2.12582752719393

