55
CSD_code = LUGRAI | q = 0 | S = 0 | Stoichiometry = C19H32AuClNP | MND = 2
Cl        4.23327172932785    7.67109593064914   12.69535433755423
Au        2.73723173224861    8.10329284745236   11.03651465215066
P         1.24096109442036    8.53762388844779    9.39912124647015
N         0.21530103199601    7.75818135997958    7.17669119174945
C         1.13303570727628    7.38076087971875    7.94841741736559
C         2.04815610664662    6.17139830698619    7.82931075673576
C         3.50377006101483    6.64646966684959    7.80929469126384
H         3.73125468565970    7.24381109518646    8.69134279929930
H         3.70960426095557    7.23196277398463    6.91547336782794
H         4.16729151966928    5.78462180195134    7.80863594635950
C         1.83774028541904    5.26202300902994    9.04407890909310
H         2.02975458141717    5.79998319703130    9.97224085547591
H         2.53200824578723    4.42615246278945    8.99460170736770
H         0.82595534932720    4.86346542873579    9.06247647975971
C         1.77572740714585    5.36070469768618    6.55898449479996
H         1.94763290178941    5.95255070325723    5.66351346910880
H         0.75539202482666    4.98594276734708    6.53662892294906
H         2.44960474033986    4.50684079252156    6.53370004924512
C        -0.51428064151760    8.48394851940707   10.10244286168127
C        -1.58858608071082    9.15200513103921    9.25057838506842
H        -1.51911692877481    8.83818047582485    8.21282328513989
H        -1.51652490115912   10.23488858652143    9.30687006234132
H        -2.56932596763589    8.86745197120694    9.63044417718709
C        -0.84406460405170    7.00034358362754   10.28266803930978
H        -0.94873919996035    6.50092839761698    9.32232268371565
H        -1.78379686891076    6.89643446956329   10.82309923029124
H        -0.06822087706747    6.50123151803583   10.86225009639260
C        -0.47254778854696    9.12683429483858   11.49084311743847
H        -0.25430103399303   10.18976908131608   11.44442536040493
H         0.28207610167636    8.65048738535919   12.11739803402582
H        -1.44074749936707    9.00470589495187   11.97420603215012
C         1.63157368681942   10.20992207345060    8.60617959652553
C         0.76252119055693   10.66124055067898    7.43674304311705
H        -0.24496415580946   10.91327704508702    7.74777305707882
H         0.70259434676129    9.89987103744783    6.66539548729132
H         1.21040115848834   11.55349875279280    7.00016184352996
C         3.07673277519664   10.07370120189934    8.11741037475958
H         3.73075145397668    9.72307350596763    8.91639684905926
H         3.44689565128569   11.04144897700237    7.78263513168897
H         3.13803905131408    9.38169600666730    7.28053572508895
C         1.58743469987456   11.25325658289193    9.72345436607596
H         2.10326145813074   10.89153796613939   10.61450807175213
H         0.56393896285388   11.51190143370875    9.98479294514726
H         2.08412357183572   12.16448174353250    9.39367105793043
C        -0.31935023885778    7.29904715210127    5.99817863279979
C         0.17453889026296    7.74558736053180    4.77134311042865
H         1.06598201384446    8.35640394744460    4.74850935248242
C        -0.46700315697116    7.40007770121016    3.59841979238653
H        -0.06841311243866    7.74538017847051    2.65601416520271
C        -1.60904000866564    6.61762591815930    3.62486823755466
H        -2.10500744477222    6.34845694663109    2.70520801906067
C        -2.11248335604825    6.18670731845999    4.84093975409643
H        -3.00487525950468    5.57928736298747    4.87351187892078
C        -1.48380764165984    6.52913596663055    6.02120879614560
H        -1.87936171175841    6.19649235119763    6.97008805216316

