109
CSD_code = LUGVAL | q = 1 | S = 0 | Stoichiometry = C43H60MoN5(1+) | MND = 4
Mo       18.09470484594426   15.17602882510164   10.09484616408246
N        16.54291679524218   15.91500392210226   10.36298987756169
N        15.42613136955568   16.49625508278366   10.46566409562586
C        14.47089831000410   16.19636035190360   11.27560116845997
H        14.57998016362899   15.36785202172665   11.98548096063278
C        13.23244135422476   16.92715176229964   11.28208701600450
C        13.01146601423254   17.98409497696724   10.39104211427377
H        13.79274676921924   18.24613940805302    9.69431529668379
C        11.81564585519639   18.67030669832696   10.40970843631583
H        11.65023389130354   19.48391983735564    9.71980982992642
C        10.82242382091329   18.31780252041554   11.31311132221196
H         9.88752248879591   18.85667195659424   11.32473178971889
C        11.03052465037940   17.27313409893761   12.20077790849213
H        10.25780267472842   16.99986260827591   12.90310276913784
C        12.22478524851793   16.58063540301021   12.18786891930504
H        12.38712795800122   15.76639288489398   12.87942750351823
N        17.87056733530800   13.28854194772822   10.24032425174912
C        19.06270629153399   12.72836100692666   10.76913620404233
C        20.05122916855166   12.23269840595967    9.92099790394423
H        19.90936153340409   12.27384166486579    8.85088662308937
C        21.20244107761271   11.64132672583668   10.43183306903519
C        22.22536589739198   11.08237305052828    9.49233660513383
H        21.84371553308599   10.17168177018302    9.03106794579318
H        23.14649478186363   10.83535865679500   10.01383932549802
H        22.44070286632483   11.79138244019231    8.69590637988729
C        21.36203924570613   11.55538358302357   11.80631807390649
H        22.24890156101861   11.09307033152757   12.21459621316627
C        20.39216674832536   12.04297526699538   12.67839235614873
C        20.59532895415908   11.93593531916271   14.15819407737451
H        20.78804126201189   10.90148384030435   14.43810562008486
H        19.72311843042260   12.28674129553102   14.70468842442649
H        21.45975251668131   12.52480895344005   14.46555458862446
C        19.24758724026452   12.62357224527496   12.15276697550753
H        18.47729891513982   12.98585573626521   12.82201586801365
C        16.74962181602109   12.35230652154510   10.08879010053195
C        17.18756280677008   11.09124094829222    9.32943061728701
H        16.33551795598773   10.42984565179009    9.19804613493492
H        17.95574651739408   10.55294894801651    9.88015529567505
H        17.57914836918503   11.35367497063998    8.34954989585790
C        16.19499318488666   11.94762953517054   11.46454607257107
H        15.97070113565312   12.83818440970449   12.05315021999095
H        16.90818175475090   11.33057013686213   12.00578803160936
H        15.27877965945494   11.37723825147530   11.33804051659272
C        15.63850454535726   13.05050878005080    9.29736308011620
H        15.16819225557572   13.83168305822588    9.89280807106812
H        14.87199323613911   12.32957846495905    9.02349790040944
H        16.03924663749652   13.49454158493013    8.38615393246346
N        19.27217994416939   15.96392955331035   11.36100658746195
C        20.57602860699722   16.15042017209999   10.83482010518364
C        21.56715384220558   15.18938187612252   11.02268103410372
H        21.33996702265057   14.28264126011151   11.56493820123803
C        22.86277773848188   15.40371845333924   10.56386875005155
C        23.92499724838385   14.38219049791764   10.82984291212302
H        24.26396774717262   14.46585261076681   11.86259630994493
H        24.78591461216219   14.53027486807494   10.18280790773695
H        23.53631335161361   13.37692575497656   10.68779121985661
C        23.15583121150470   16.58657858576157    9.90153485336952
H        24.16108922064366   16.76575232539252    9.54854249834401
C        22.18204207410026   17.55872571851769    9.69091505859004
C        22.52450604119042   18.81838494239975    8.95757463085841
H        22.70026623356274   18.60395116537122    7.90324581316070
H        23.43566696532914   19.25679470568455    9.35914886706968
H        21.72282929803645   19.54850331259379    9.03155048119508
C        20.89808344729175   17.33428482700074   10.16506291075330
H        20.13211800358122   18.08674511417886   10.03283577439466
C        19.07137717281708   16.51662461463776   12.70987776569961
C        20.14901666159254   16.00457986791392   13.67727988360261
H        19.96499833825799   16.40147352041200   14.67204253473069
H        21.13909013896885   16.32507604785467   13.36157080133541
H        20.13126601187831   14.91826111239615   13.72614174668441
C        19.10795906034890   18.05288161826784   12.67325764199372
H        18.81499552834593   18.45022969122156   13.64139799538522
H        18.41158350017971   18.42319670423452   11.91989145391318
H        20.10841950150749   18.41272629653751   12.44594232856734
C        17.69476635293129   16.07991040551349   13.22655356594629
H        16.90389726080347   16.64810067271537   12.73849075673612
H        17.62846471307143   16.26517634486664   14.29626753693986
H        17.53710078199276   15.01344839070074   13.04737326176040
N        18.47956963876290   15.66216045431038    8.28431942526606
C        19.32221475317376   14.71723840489545    7.65080235274013
C        18.76670474811783   13.64007429677694    6.94974373800883
H        17.69042837527988   13.53259426966268    6.90946229792102
C        19.57034365005976   12.72451100304254    6.28888197369318
C        18.97684030589148   11.56754046146963    5.54588865312023
H        19.26224123052558   10.62742982200664    6.01786535388596
H        19.34787045077223   11.54616075427360    4.52296880096854
H        17.89165275365453   11.62737857340143    5.52039853532244
C        20.95182814868587   12.89302424042518    6.32709708569971
H        21.58075239216230   12.18619405429202    5.80577722067261
C        21.52859014812695   13.95796733558725    7.00113726963136
C        23.01134693087391   14.16538382750211    6.98837347415190
H        23.53293618679215   13.25767500913244    6.69480331578664
H        23.36359960205216   14.48429386817590    7.96639452426672
H        23.26652126943193   14.94586336478797    6.27114356958316
C        20.70635184016640   14.86689356911769    7.66090058478368
H        21.14634661801761   15.72345910747325    8.15085791436769
C        17.86474310759112   16.66881752150089    7.40019337506751
C        18.67910115909306   16.87191757351540    6.11556113110537
H        18.67760627156005   15.97707609507916    5.49776621670589
H        19.71026438992979   17.12723658206819    6.35012913343667
H        18.24498218888021   17.68523219793781    5.54036360201551
C        17.81714470427118   18.00600317154496    8.15168015152412
H        18.82484197587976   18.39565125803309    8.27924066121314
H        17.34611796846061   17.88245869656084    9.12850295639031
H        17.24473477856261   18.73155398625648    7.57921516566407
C        16.43366204784842   16.24892079915436    7.02794426734610
H        15.84194157883759   16.08213411137746    7.92741733528390
H        16.44018405309543   15.34369036914675    6.42543711216594
H        15.96090765830693   17.03266832967282    6.44173606697337

