117
CSD_code = LUGVEP | q = 1 | S = 0 | Stoichiometry = C45H65MoN6(1+) | MND = 4
Mo        3.92029109626445    6.87277170050043   18.63872742631693
N         3.52459951989134    7.89316443288274   20.20539812931045
N         2.42724523556529    6.86382514626714   17.43655926631805
N         4.00443260953821    5.20719196549045   19.12367184466732
N         5.60541240708448    7.24106235338731   17.82752817127047
N         3.99945258897201    3.97714514904145   19.40798972077748
N         4.21921927613333   -2.08230084436623   21.46740689675037
C         4.15008133584378    9.16022686925844   20.08761719178762
C         5.46520680186718    9.34706695395862   20.53023772592012
H         6.00874750505600    8.50915836085968   20.94863601070508
C         6.07359598412071   10.59091665506053   20.45919052310158
C         5.35414479889998   11.66454367913871   19.94079733504007
H         5.82341215805481   12.63661124500145   19.89470136329198
C         4.05010516646859   11.50880530506438   19.49688299576266
C         3.45616338361106   10.25279917965213   19.57082122032404
H         2.42956529797087   10.13453569016096   19.25533281426627
C         2.88971605592651    7.62359020595659   21.50059545336907
C         1.78584187598138    8.12382686222752   17.41073859802923
C         0.71726877793758    8.39174264733432   18.27549845966960
H         0.39289764054037    7.62700749524725   18.96937812119935
C         0.05732767103093    9.60971816702274   18.24335598512975
C         0.46838781421023   10.57355748310687   17.32640488191853
H        -0.04998246797075   11.52084104801596   17.29311941907591
C         1.51279781717623   10.33089779545297   16.44832849417547
C         2.16716669555736    9.10356168714814   16.49744431905504
H         2.95404711291916    8.89190487136165   15.78750972838138
C         1.71715602673654    5.75984420108998   16.76927262978497
C         4.40371491231645    2.03651967788577   20.72339194173625
C         3.81269535251223    1.15626498231771   19.80214026678692
H         3.40284463522214    1.56626323068748   18.89196110900319
C         3.75122066343831   -0.19001027165185   20.04195198182359
H         3.28710996679927   -0.82383540853093   19.30541918945708
C         4.27946737873584   -0.74914098225526   21.22632711754888
C         4.87233957175953    0.13884459989283   22.14853559770161
H         5.29239009936825   -0.23382163522934   23.06725633288528
C         4.93015549017298    1.48547385353951   21.90130262584304
H         5.39174537007518    2.13816466044241   22.62857077621287
C         5.46276045246879    8.14154931339127   16.74255008680339
C         5.20269890697935    7.65290146913991   15.45840280014310
H         5.08684164748151    6.58623388532604   15.31815440704279
C         5.11087027476312    8.51054109312941   14.37250085450760
C         5.29159738492332    9.87548195284559   14.57666603325110
H         5.23681090391722   10.54508785049984   13.73046154120438
C         5.55099719005981   10.38665495391985   15.83968475635342
C         5.62959161797141    9.51369661068037   16.91966199511981
H         5.86058674832550    9.90379602586411   17.90060596226537
C         6.96056828745172    6.69860586353980   18.00145623261546
C         4.75543557270152   -2.63443797991795   22.68864950123714
H         5.83052351031419   -2.44970374233168   22.76649609200385
H         4.59536811689521   -3.70894284642589   22.70409750762216
H         4.26066968934867   -2.20539982129889   23.56416802466390
C         3.62129601798577   -2.97797991493071   20.50616080775089
H         2.56734411777445   -2.73555864174659   20.34425420785875
H         3.68040768059776   -3.99877262211340   20.87342080007293
H         4.14432531845718   -2.93155243996193   19.54707873977318
C         2.06695992775704    6.33660558493403   21.37910911527980
H         2.71588193691264    5.46723497052246   21.28967576306929
H         1.41738773206706    6.38155426167043   20.50516913471404
H         1.45010434793744    6.20751088629215   22.26523725095028
C         7.48205855822401   10.79044791951767   20.92830188561740
H         8.12541194237783   11.06385389387270   20.09205379406654
H         7.87685448551897    9.88864852812173   21.38959824646923
H         7.52660928996647   11.60040630681127   21.65408368242788
C         3.26157178625962   12.66936708270682   18.97376947974268
H         3.89717750234629   13.53555449159607   18.80848223606458
H         2.49139490175103   12.94658893655726   19.69322218474618
H         2.76465065308856   12.40462383342371   18.04306485281770
C         3.95118719560767    7.42931292281264   22.59596594367460
H         4.67791351393083    6.68000516119760   22.28008232698015
H         3.47702705721829    7.08714171538462   23.51194751695322
H         4.46758129984840    8.36267546445614   22.80724986498450
C         1.95498552971413    8.77529555275840   21.90027123193306
H         2.51114092331862    9.70172580821925   22.02554783603501
H         1.46650117343529    8.54031985204456   22.84208256388795
H         1.19221861546994    8.92588725298612   21.13989126486974
C        -1.07816001499359    9.89999658155744   19.17634489833557
H        -1.34187064598350    9.02397970817742   19.76366132412577
H        -1.95478299521484   10.21964915542085   18.61602732781688
H        -0.81175781566612   10.70784228677086   19.85781714953243
C         1.91292315217062   11.34825258075569   15.42482922215137
H         1.51380229227784   12.32979554967729   15.66809182028299
H         1.52328112979898   11.05967357606679   14.44857336427082
H         2.99559766130668   11.40807120036269   15.34580462798536
C         0.74920026084630    6.27431298883276   15.69520372451096
H        -0.05967721278713    6.85359213730728   16.13418606502064
H         0.31708315296969    5.42970003186594   15.16525160246374
H         1.27196638480068    6.90228570277750   14.97681399526559
C         2.75934453144696    4.86426361074364   16.08582071456531
H         2.27979495802411    3.97228513958357   15.69040831453962
H         3.52855377045818    4.56135939256026   16.79818551508702
H         3.21936121712102    5.39749422127460   15.25644108389167
C         0.93541458243440    4.92529164019018   17.79668391388101
H         0.13392294434214    5.51023653865068   18.24154173562722
H         1.60415955808841    4.57118955190376   18.58026733238180
H         0.48601663604007    4.06478286170219   17.30765050023907
C         4.47157322917044    3.43781326238358   20.48672940237170
H         4.94199633171370    4.06469747902184   21.25377074510710
C         4.81340743973711    7.98773971518715   13.00093637744875
H         3.79788408424086    8.25554300123969   12.70849751519987
H         4.90756348037962    6.90561557828702   12.96303645151643
H         5.49133672040512    8.42447540364622   12.27089937106709
C         5.79138033830876   11.85030766368170   16.04804979364303
H         5.31302191967458   12.19203682159364   16.96258685021452
H         5.42264900180618   12.43462063897942   15.20871601465250
H         6.86141189146740   12.03662889884069   16.14194230200835
C         7.99740290342586    7.83051346838370   18.06687260213149
H         8.01156129185725    8.39899034028319   17.13979994191695
H         8.98761139885045    7.41102982287889   18.22368859818885
H         7.77025400084597    8.50601646610972   18.88846815590214
C         7.01232008771756    5.90531581030097   19.31258171864916
H         6.54718806415553    6.47287590633360   20.12168203917528
H         8.04689541646650    5.70231157859920   19.57974897661272
H         6.49925302863899    4.95124888652289   19.20331227858366
C         7.31636543544394    5.74812736693219   16.84675629357417
H         6.53547461066640    4.99536370588559   16.73311435395606
H         8.25539651174474    5.24470187458376   17.06104348227123
H         7.42768382825218    6.29497140645492   15.91358431373419

