37
CSD_code = LUHFEB | q = 1 | S = 0 | Stoichiometry = C10H20AuN2S4(1+) | MND = 4
Au        0.00058057303316   -0.00067920754261   -0.00064261510109
S        -0.01642223773339   -2.31454404151754    0.55155189986360
S         2.14588808318270   -0.50437496195464    0.89609223359139
C         1.80757292484338   -4.43538648614714    1.69419701584505
H         0.72684655448920   -4.37955074873819    1.85048124296786
H         2.26701364003249   -4.89786095926081    2.56902246148277
N         2.32972804951726   -3.08418290901043    1.58114576834955
C         3.68788589216574   -2.84110537854312    2.03630505896576
H         4.11300437001665   -2.02555036760717    1.44502437086346
H         4.26741771613124   -3.74754257015444    1.85473688394114
C         1.60183680768014   -2.12034723428207    1.08777200322594
C         3.71777173705850   -2.47651233235875    3.51644940452094
H         4.74577249420884   -2.31646086314477    3.82660134420123
H         3.29444208599853   -3.27199216488345    4.12430936877014
H         3.15772710729541   -1.56254669801204    3.69577913860023
C         2.10703385279797   -5.25090050341838    0.44123966681120
H         1.71617642953408   -6.25618531476371    0.56477229880011
H         3.17734755236825   -5.31674591614671    0.26360166468214
H         1.63425685998872   -4.80225601783224   -0.42842147237173
S         0.01623613110472    2.31469212943347   -0.55109488076423
S        -2.14599400962829    0.50457386975005   -0.89560915719784
C        -1.80760027063727    4.43545092770229   -1.69425616587586
H        -0.72687019415985    4.37960043610967   -1.85051410607395
H        -2.26702975387820    4.89788524647401   -2.56910787375563
N        -2.32976357395133    3.08426135086900   -1.58113225209414
C        -3.68789547040542    2.84111527721860   -2.03632027383886
H        -4.11298233985873    2.02556698547211   -1.44500258297665
H        -4.26745179606449    3.74754371354217   -1.85479317532651
C        -1.60191175846505    2.12048608294820   -1.08760333803261
C        -3.71775205792357    2.47645063686091   -3.51644831356487
H        -4.74574220982866    2.31632782908457   -3.82660056993176
H        -3.29446636245025    3.27193498312300   -4.12433323585420
H        -3.15765337182175    1.56251066821318   -3.69574656985884
C        -2.10708149597443    5.25095989194553   -0.44130326298845
H        -1.71620129521246    6.25623354404283   -0.56483895984991
H        -3.17739700673779    5.31681753918394   -0.26368200146679
H        -1.63432365671675    4.80231356334517    0.42836898144103

