26
CSD_code = LUHJAZ | q = 0 | S = 0 | Stoichiometry = C11H4N3O6SV | MND = 6
V         1.04308558111252    0.27566195004624    2.97079697298002
S         0.44155585465377   -0.24582162265013    6.66673133578467
O         2.30133262086750    0.90738983097954    1.07799084874628
O         0.08250227429214    0.97331188312985    3.93096313300121
O         0.13472597672101   -0.72070461358287    1.94749448609724
O        -0.98135017595894   -2.60699611805350    1.43670298021356
O         2.72511478894883    0.26118471772616    3.71902430419388
O         3.50259216304560   -1.36819379835182    5.06405538114759
N        -0.90185363632594   -1.57180378568342    4.77903182160770
N         0.31329738335174   -2.23898572192715    4.52509202558512
N        -1.96474194490434    0.23053954328116    5.87415196177019
C        -0.90262153819515   -0.54258597106797    5.61681059226327
C        -1.76637065725021    1.18918868845748    6.84201539268631
C        -2.60564413501775    2.16083325432837    7.29525428994125
C        -2.13332112403679    2.93159460341321    8.24719558217594
C        -0.94557703688149    2.81944815698514    8.76168213372782
C        -0.06210969900085    1.92138168139595    8.41415075226730
C        -0.42762218924656    1.06121043696574    7.43014943094113
C         0.70201001551701   -2.50132073604841    3.17585279326003
C        -0.16192888650888   -1.99005589772861    2.06481590662177
C         1.34343135387676   -1.42877646881260    3.92410210203100
C         2.67393344560687   -0.89360291901884    4.33136593898625
H         3.16998604698972    0.98105680487721    1.49830975917912
H         2.13050027739233    1.73650872104285    0.61575270976183
H        -1.65064951825937   -1.69116058198229    4.09524862109014
H        -2.77827724079087    0.26339796227639    5.27445874393988

