50
CSD_code = LUHLOR | q = 1 | S = 0 | Stoichiometry = C22H21ClN3RuSe2(1+) | MND = 9
C         6.50578661300519    2.36126831678262    3.13889131123869
H         6.80661638694913    3.38112463967541    2.94336973565547
C         7.36937289620033    1.46896808295994    3.75215384626795
H         8.35654509113228    1.79226804808444    4.04315625148511
C         6.96664647536448    0.16471569173674    3.98761482290744
H         7.64128808955385   -0.53016906590287    4.46291658991058
C         5.69632572725714   -0.25081134846048    3.61736396530259
H         5.38817442363220   -1.26873540804957    3.80148435667666
C         4.82291247862952    0.63543633077521    3.01304011309928
H         3.82352800983548    0.31808297676573    2.73667202566798
C         5.23518506515942    1.93911297645111    2.76688406277901
C         3.75616059473285    2.26269494650872    0.20483462211569
H         3.54504477189661    3.04767583208611   -0.52879599736268
H         4.67516481118663    1.73720697352039   -0.06810544622293
C         2.59597306066498    1.35022835637045    0.34411598389237
C         2.06983611013905    0.36844796197554   -0.46457868514373
H         2.37437350658184   -0.00598785189545   -1.41918495816053
C         0.16824049691818   -1.20573029918553   -0.14079498639068
H         0.03241246266438   -1.27801086832505   -1.21982941808220
H        -0.78843489568376   -1.11310147167478    0.37364982045699
C         1.04498478618237   -2.48485569315592    2.33792265197400
C        -0.16166056365949   -2.36112215374002    3.00986871030306
H        -1.09425994740021   -2.49558983616884    2.48194167076490
C        -0.16118060388157   -2.08945173306776    4.36601520690844
H        -1.09833450742082   -2.00415880603777    4.89567277193144
C         1.03804129173996   -1.95731247089789    5.04939459708931
H         1.03282631304463   -1.76725026929713    6.11242770366497
C         2.24028370276751   -2.09004454883738    4.37399095958181
H         3.17404375633629   -2.00484604372640    4.91078358793601
C         2.24822138418167   -2.35238636615324    3.01467356264228
H         3.17993736567585   -2.47458975575616    2.48020731988974
C         0.53749011520029    1.54072269052562    4.32325713275534
H         0.01141206959986    0.60124562707899    4.18907727875276
C        -0.11720950160164    2.75812152222815    4.05397140584387
H        -1.14552497164772    2.76033814659951    3.71306101856257
C         0.54855105084007    3.97803213559288    4.30794329667754
H         0.02894145763490    4.91658691536018    4.14978894184161
C         1.85717770266437    3.98181295143687    4.80875820310730
H         2.34283251573778    4.91761609564535    5.06204834482028
C         2.51354933526801    2.75100650187144    5.06946001307332
H         3.50018211980684    2.75570696730765    5.52302361303140
C         1.84497759307158    1.53233857214479    4.86075146160863
H         2.30503785274846    0.59588518748634    5.15062010859625
Cl        1.33375223916044    4.20631040810541    1.13513659884804
N         0.98935674943663   -0.09940666708281    0.19751787386001
N         0.84638252509538    0.52916729181375    1.34804179272459
N         1.79548082718159    1.39684407548573    1.44155604158079
Ru        1.87709232695796    2.72635739218489    2.88768043855757
Se        4.03748090446492    3.21780552759486    1.92523034566289
Se        1.06248193498890   -2.90276848474777    0.44781933131340

