50
CSD_code = LUHLEH | q = 1 | S = 0 | Stoichiometry = C22H21ClN3RuSSe(1+) | MND = 9
Ru       -0.85771757396816    5.98208852580518    8.69561591460884
Se        4.79023057570457    7.20759086069161    6.50211418087840
Cl       -2.26195555849951    6.65659755610301    6.94544011959903
S        -1.07947859760758    3.86432768268994    7.61890967437628
N         0.51644274419951    6.22256046005947    7.32097506660238
N         1.33846788283534    7.21307707213168    7.27374240103215
N         2.00068086765379    7.13196331504897    6.13575700065341
C         0.16165834611535    2.82552224717606    8.40349415511437
C         1.60306996430418    6.04843688488426    5.43316328036191
H         2.01332707444517    5.78893837159273    4.48014001383763
C        -0.23902496979452    4.26616652020165    6.02901707910882
H         0.30907787265654    3.38599984631222    5.69259746826941
H        -1.05656513711700    4.48686153520723    5.33698107990974
C         0.62935163073210    5.45627790562420    6.20400521168046
C         1.42766714849422    3.30167582911862    8.71425553752041
H         1.69900137575154    4.32798392289416    8.50303622786875
C        -0.19575617631816    1.51580140623075    8.69169498116827
H        -1.18568188113437    1.16653201839519    8.44441559454170
C         0.12540231560623    7.32468936273361   10.27692596927492
H         1.00392543025833    7.95886580178888   10.22051602117486
C        -2.29534022728903    7.04339374017981   10.15617778729752
H        -3.27942428972406    7.46770803160720    9.99280006106500
C         3.07334826554276    8.01509033752571    5.85003032603012
H         2.90699054394568    8.96075529461400    6.36599259660123
H         3.18320873712314    8.16463818022184    4.77609412311073
C        -2.16805735547964    5.71105546926605   10.56334961892959
H        -3.05055174779510    5.10712134027407   10.74121878708753
C        -1.14733463414552    7.85646981879137    9.99793132789095
H        -1.25554017733709    8.89980815354793    9.72542450216897
C        -0.87951548153489    5.17756724410030   10.83148388447033
H        -0.78885884360797    4.16698690656680   11.21709446622569
C         2.34414652708333    2.44800832238553    9.30334908912095
H         3.33425408421496    2.80721877383026    9.53691591637518
C         0.26066325216383    5.98925407123246   10.72418171263086
H         1.23220735096476    5.61539990076992   11.02159630763276
C         3.98542476495923    5.88197950237939   10.37910325522064
H         4.00610332203963    4.93749823382251   10.90324468014116
C         1.99565279714360    1.13767523224712    9.59249204035048
H         2.71528210874368    0.47956684177857   10.05359196645535
C         0.72566179774529    0.67357763674537    9.29117999032482
H         0.45149417384421   -0.34472352320381    9.51701033388394
C         3.98193547471433    8.31855912351626    9.04943354108458
H         4.01070039919053    9.26967027146919    8.53889478134761
C         3.66276837059451    7.04477885878350   11.05938686885678
H         3.43115138835310    7.00830873193247   12.11350003065161
C         3.65895958935781    8.26060407590415   10.39289287432963
H         3.42891425229507    9.17029265712098   10.92749875579354
C         4.30020165222579    5.93031559810297    9.03192151333139
H         4.56991057268014    5.03231939175632    8.49369983158513
C         4.29411999767279    7.15004465803028    8.37131205242857

