39
CSD_code = LUHWOB | q = 0 | S = 0 | Stoichiometry = C16H16N2O4Pd | MND = 4
Pd       14.73601796115773    7.40370656846444    1.76922084199674
O        13.31903608812206    6.83953957635244    0.44195686352353
O        11.80750256923626    5.22000605227832    0.25517516826463
N        13.22490650027569    6.75976723472368    3.05199039437607
H        13.35872086897292    6.60253260217321    4.05259637781450
H        12.42420075926048    7.38699126718618    2.93579245624525
C        12.64775100734233    5.84267013764531    0.86281619823184
C        12.93932574730316    5.46952147289533    2.36873550328321
H        12.04989514216292    4.97964783702486    2.79096502019323
C        14.15076421152643    4.57434541565561    2.54737573310140
C        15.21837748853624    4.57520644566674    1.64056763016629
H        15.16249978794259    5.11629257125411    0.69121701634029
C        16.33739700285328    3.79515971776382    1.89505650598257
H        17.15239444142652    3.79117818855916    1.18687383584718
C        16.40809284861327    3.01216719489008    3.03698966864899
H        17.28297135981758    2.40888530400883    3.22724482392234
C        15.34508449495590    2.99048004598560    3.92208394862962
H        15.38377862000634    2.36752822683327    4.80336586988933
C        14.22603194096299    3.76972928180512    3.67970160583668
H        13.39766111963861    3.74419511199517    4.37461319294677
O        16.15241010626312    7.96943715703370    0.44194498923877
O        17.66442361981044    9.58850957607814    0.25535281007155
N        16.24659590386873    8.04895527392947    3.05204810260732
H        16.11272699037197    8.20627212061920    4.05262829322393
H        17.04714613202444    7.42154750982958    2.93596536280502
C        16.82372180962070    8.96626612570159    0.86283823397214
C        16.53251880247304    9.33916384727292    2.36885911084424
H        17.42213031403462    9.82873032223313    2.79108822170624
C        15.32138759656306   10.23478823364690    2.54748433661852
C        14.25376279736848   10.23407452655708    1.64068483047373
H        14.30943754759223    9.69280208504689    0.69145669998221
C        13.13485729255007   11.01422631596770    1.89510483876066
H        12.31987214776440   11.01821385315740    1.18688174580842
C        13.06435836288459   11.79738651167798    3.03686023961105
H        12.18956958847695   12.40083534751168    3.22708448743166
C        14.12728330843740   11.81882877767079    3.92204879449006
H        14.08857238270162   12.44171791561704    4.80335435029440
C        15.24625294580123   11.03942710058549    3.67972827725492
H        16.07456239129046   11.06476714671306    4.37474761957316

