81
CSD_code = LUHWOC | q = 0 | S = 0 | Stoichiometry = C34H36Cl2F4N2O2Ti | MND = 6
Ti        4.00970909964748    1.27630345078727    3.42825188669286
Cl        3.96683552572086   -0.33971311410392    1.87629202021043
Cl        2.24237341508777    0.45544288612390    4.54790424989529
F         3.72351708901338    6.68803587336346    2.30215788040859
F         0.42137286631322    5.75047722926739    5.50127031236336
F         9.03228770175145    2.51618579856786    5.55965082086576
F         9.63420446568457   -0.36657167377409    1.90712852343680
O         5.17144422729027    0.44895194271184    4.46850648918786
O         2.99916086387291    2.34726815319894    2.44290612071864
N         4.10145430619783    2.75713573538245    4.93894890517499
N         5.57911684715722    2.12181586224222    2.32215682957854
C         4.25110685435929    2.39907610260705    6.19054472108044
H         3.96390740423877    3.11647442975838    6.96694531694670
C         4.77917097036719    1.18053483186410    6.63895086694192
C         4.85509746132271    0.94227566902461    8.12686454670436
H         3.85851425454470    0.67843044820607    8.49518771158018
H         5.15909333808440    1.86352334991709    8.62941616826392
C         5.82467672185183   -0.18534709159038    8.45576193915497
H         6.84476578261639    0.12959314773080    8.22827781768916
H         5.77114611856177   -0.41932646179473    9.52003943113297
C         5.46164777739695   -1.40966301337611    7.62523270507248
H         6.04553511584460   -2.27688682623530    7.93844002419933
H         4.40503991627699   -1.63975545383169    7.77856716936445
C         5.70751355447285   -1.15162841746642    6.13835935593150
C         5.19499383843428    0.21308193337339    5.72711581185535
C         7.21184857533412   -1.24814907203412    5.75430427664445
H         7.51334838895023   -0.34226578938170    5.22626467119613
H         7.83798918969767   -1.34881059672889    6.64017412762310
C         7.33655482043612   -2.45191841657639    4.81893369987835
H         8.17140845222423   -2.34880646056464    4.12728629007251
H         7.48085604912902   -3.36478435128207    5.39991467720065
C         5.98508502731351   -2.49769392589016    4.11589475846457
H         5.78882842153801   -3.45431700260437    3.63471315783237
H         5.92071425281092   -1.70920752726228    3.36131595108155
C         5.00550410929887   -2.21172455923273    5.25047359923905
H         4.03855727212812   -1.85653005060679    4.88519414865707
H         4.84257264631915   -3.11507514235566    5.84084575113229
C         3.43549792013754    3.94002275352424    4.64123424665158
C         3.94137504453130    4.77287748519972    3.63682444139289
H         4.86397018252370    4.52689522446378    3.13005564351203
C         3.23817049573441    5.90666223615194    3.28628490043919
C         2.05162042499055    6.27227848311114    3.89898670453638
H         1.51495626448780    7.15885878216802    3.60687334213825
C         1.57729680132882    5.43391463023099    4.89309794189312
C         2.23864640440412    4.28360708717137    5.27826794693364
H         1.80220295104375    3.63214013564309    6.02043476822196
C         5.39560100046352    2.44981327767100    1.06652945174175
H         6.28212962432143    2.56653683794529    0.43381025350344
C         4.15971232680706    2.70401045090385    0.45895837382737
C         4.13721261699139    3.09687362040912   -0.99648069569841
H         5.01190478375340    3.71070216616098   -1.22251012983834
H         4.19471789403386    2.19689858725662   -1.61685634818670
C         2.85668440321372    3.85389239920178   -1.32414914640631
H         2.82379162241279    4.08507547942116   -2.38998498231701
H         2.83737685733694    4.79538828566797   -0.77139479229069
C         1.66001979850164    2.99515591888103   -0.93640722021482
H         1.74305132842866    2.03138427022895   -1.44305550147274
H         0.73393174434204    3.46740932156026   -1.26363956631948
C         1.60471011099064    2.76994885942415    0.57728206816333
C         2.97639949011836    2.59914256692751    1.18780721100586
C         0.73802425545321    1.54605073770629    0.94061574338198
H         0.93818621645787    1.26532821087412    1.98002997589606
H         0.95556684092375    0.68640497598979    0.30762534604409
C        -0.69880401419960    2.04564644307399    0.79624933746748
H        -1.37372361493058    1.49422199787091    1.44830995542534
H        -1.04139737024739    1.90875587107956   -0.23004308301763
C        -0.64899047961507    3.54224073228803    1.15193978059861
H        -1.11457302815498    4.14057430067847    0.36860341229680
H        -1.18054273862058    3.74786571572802    2.07978097594410
C         0.83809065340816    3.89610145698448    1.29998450599368
H         1.12167262943584    3.88405590843968    2.35475829965864
H         1.07680005383895    4.87729620942578    0.89051388213037
C         6.85583624491648    1.78918257840321    2.76095445657138
C         7.33608330275086    2.34951508724057    3.94929599021279
H         6.73767658930991    3.05625686695693    4.50695108756866
C         8.58308362002226    1.97882571383891    4.40966048478080
C         9.38921245982061    1.07211062531206    3.74135018282604
H        10.35597928537477    0.79027075940548    4.12268745347395
C         8.88547553345626    0.53000892293458    2.57133875392016
C         7.64638400883697    0.87066751354721    2.06388904723703
H         7.27382673956778    0.39169861546180    1.17064276689930

