37
CSD_code = LUHXUH | q = 0 | S = 0 | Stoichiometry = C16H16BBrFeO2 | MND = 8
Br        1.60688298452755    1.77499434256257   12.89784728539487
Fe        3.76976818708639   -0.65146498749787   11.71590181978213
C         3.97063957865052   -0.26208801877155   13.39414712000494
O         4.11070322749713   -0.03591059502597   14.50981500378835
C         3.92134242809795    3.42732567317061    8.18796140833319
B         2.82991708730267    1.02994686344500   11.67561197626724
C         4.37901643896604   -1.17386888285405    9.61793557142821
H         3.84584793084715   -1.03177736134492    8.69350317969999
C         5.90564026126726   -0.93288253844885   11.28808561546011
H         6.75574003982769   -0.57830273481793   11.84828952446435
C         3.20730516925879    1.88599337675144   10.42980801563359
C         4.27498525378085    2.79533103232804   10.49364000986174
C         2.48895807891565    1.78176053731894    9.22977821133686
C         5.37699394400975   -0.32618936456385   10.12690767620241
H         5.70906867829511    0.59676203417614    9.68536243123963
C         4.61865230576140    3.54565409085098    9.38250687987277
H         5.44723214007328    4.23754320675771    9.44678473236930
C         4.29411847044890    4.25810239079414    6.99840874405580
H         4.02508357704603    3.75486011820756    6.07244655980250
H         5.36134998242910    4.46873898034654    6.99011960875025
H         3.76395769144081    5.21062897903771    7.03072845639725
C         4.33928663154123   -2.34619020742686   10.42524101550651
H         3.75814204376472   -3.22889879763493   10.21553613702748
C         2.85406809399217    2.54260471237445    8.13158899860696
H         2.29351130541394    2.44614087644576    7.21203560736686
C         5.02954461686407    2.94998385944609   11.78156252735483
H         4.42128336532818    3.48869657949297   12.50907513462023
H         5.95079327292697    3.50762232922408   11.63150070301550
H         5.26928447913069    1.97375795650076   12.20762405568702
C         5.29374065302829   -2.20713600012451   11.44518313225921
H         5.57618993558527   -2.95815270097511   12.16338713352259
O         1.07715590850943   -1.57686284681988   12.14991177865777
C         2.13951136192156   -1.18180530593604   11.96474720602808
C         1.30673342691725    0.86044399337845    9.15642041066570
H         1.55334895733174   -0.12178938688326    9.56358441028241
H         0.96514939846700    0.74304584926251    8.13062633078741
H         0.48145309375214    1.26428194723343    9.74478558846578

