110
CSD_code = LUJCOK | q = 0 | S = 0 | Stoichiometry = C51H50CuN5O3 | MND = 4
Cu        4.70690894793143    6.38957878157674    7.35919471408340
O         3.22794255385241    8.37092126826172    1.57707148886745
O         3.10487436261092    9.88343557313283    3.10225669984316
O         5.38759197678349    6.83409556351927    2.19180510477827
N         4.35247690608723    6.84714068827835    5.62003481811264
N         3.40065546078015    7.56394515961552    7.95596763845286
N         5.18507036792195    5.74631762425752    9.03644462454355
N         5.98282318664211    5.34484928115728    6.58049502239197
N         3.34765613698903    8.75052592818632    2.72538748851054
C         5.17296319379665    6.30314219162434    4.65472930129433
C         4.85517831765953    6.90581697704651    3.41476809940258
C         3.83053123220676    7.82825888616847    3.67916758919807
C         3.52268488809067    7.76568305121030    5.06638470298783
C         2.51928969686340    8.40025150421590    5.80466339173480
C         2.48862857896797    8.25247486710131    7.18817058969657
C         1.49544088362808    8.81047176571039    8.04603112437475
H         0.64676608587637    9.36991616244493    7.70615411711522
C         1.82753916740115    8.48635632099375    9.32115963742809
H         1.30068555095937    8.72615228366395   10.22355434616270
C         3.01817035361279    7.70420771029747    9.26370305374008
C         3.65904751580812    7.14226390471062   10.36116102877690
C         4.71339967707059    6.24135990824324   10.22196381986521
C         5.45739927085253    5.67571506161716   11.29511756208643
H         5.31857802063551    5.92100446875806   12.32935388870700
C         6.36212404269616    4.81922572416127   10.75185088038923
H         7.10178000479340    4.23152843262523   11.25911856983461
C         6.19157759255068    4.85470205989361    9.34004484227212
C         6.95571888805113    4.13219422351882    8.42593298316288
C         6.82041045464833    4.38198318810263    7.06055019980614
C         7.44116783211139    3.75857018408522    5.95409672682743
H         8.13480554972578    2.94346447357273    6.01465334126702
C         6.96913592163880    4.36127106625259    4.81397343335198
H         7.24341339876059    4.09891650317874    3.81338982047402
C         6.05429337763597    5.35609882497962    5.21570911454795
C         1.45303045334553    9.14770094915536    5.12233162775527
C         0.68180230465244    8.51221298766626    4.15543744668556
H         0.87531542412607    7.47497842323599    3.91700744191579
C        -0.32979252951875    9.18665660455201    3.49934581948036
H        -0.89472775193959    8.65072723017177    2.75451420072098
C        -0.60449997826802   10.51998007072620    3.77775076454168
C         0.16923273115881   11.14534564288958    4.75272452974686
H        -0.00382559065185   12.18293638986287    4.99569738050043
C         1.17565028783729   10.47736503258495    5.41851537386567
H         1.78020433127198   10.99619502922992    6.14758656848104
C        -1.68804211873904   11.30773506411501    3.06023632698859
C        -1.04000658522989   12.50350562824167    2.34856599589353
H        -0.57313061006012   13.18137327842687    3.05739247027427
H        -1.78966230463801   13.05845720062111    1.78794080804186
H        -0.27503694961592   12.15619785938215    1.65793732715441
C        -2.71375670098971   11.80339755989838    4.08965293511803
H        -2.25172203032740   12.45152442156467    4.82921596807653
H        -3.16392854323770   10.95951677271976    4.60907325120189
H        -3.50302899946446   12.36300145423481    3.59187726637064
C        -2.42775815320682   10.47306684260771    2.01130870916651
H        -3.18499915941158   11.08699267768721    1.52739512750597
H        -2.92802614043859    9.62182846965298    2.46790874425172
H        -1.74371834381060   10.11734051901990    1.24475844478339
C         3.19303200412329    7.49770675599361   11.71354869001317
C         3.16507484770559    8.82643091295504   12.12700012950074
H         3.50088566200605    9.59868426568455   11.45007547482820
C         2.73230471375703    9.15967940534572   13.39410370694422
H         2.73271283800101   10.20122001433128   13.67836235708678
C         2.30317073506095    8.18985619675436   14.29811513870056
C         2.32784806451352    6.86627516386200   13.87487887448890
H         2.00099543540362    6.07463821311082   14.52924790640416
C         2.76680310080852    6.52393026230836   12.60840267217286
H         2.76298080914490    5.48782967691051   12.30157593766650
C         1.83406113548272    8.61047471902942   15.68146214398946
C         0.63654594297730    9.56002876054132   15.53553076939620
H         0.27453905130275    9.85909066590505   16.51685600259126
H        -0.17392718790552    9.06442921854505   15.00494669957808
H         0.90580503294717   10.45700218066927   14.98488752545555
C         2.98387654967670    9.32954091463982   16.40129709738571
H         2.67325431422757    9.62359677038517   17.40157865224915
H         3.29158194270112   10.22267133575003   15.86478934727890
H         3.84497106003962    8.66987609695884   16.48720719834602
C         1.39952178140053    7.42279883783321   16.54435978230184
H         2.22217141202165    6.72818329072795   16.69798447749738
H         0.56458599454127    6.89365367366920   16.09083168187716
H         1.07819642320961    7.78262889195667   17.51969208387224
C         7.90447439111381    3.11290184748510    8.89090917257975
C         7.48960574720923    2.08401660379683    9.73293924279181
H         6.45640137926145    2.03959551906642   10.04584225793260
C         8.37721180609235    1.11189155121181   10.14528353101665
H         8.01336076336113    0.32646436689124   10.79059947178516
C         9.71244566165694    1.12406277272619    9.74598038707205
C        10.12039135830206    2.15873281167859    8.91228691104098
H        11.14303301947239    2.22300400809831    8.57794031436334
C         9.23494916456466    3.13289880586903    8.48804492935672
H         9.58426409049103    3.93420842608312    7.85313524103456
C        10.64806625130419    0.02660123601867   10.22596527420322
C        10.11543849851830   -1.32941258338803    9.74105572964954
H         9.12568859239357   -1.53304544902083   10.14005116472373
H        10.78167303757969   -2.12839842912043   10.05920009381841
H        10.05440880922663   -1.34301627892247    8.65474856480248
C        10.69857695100468    0.04735653420521   11.76023367137484
H        11.05187243331408    1.01459399061039   12.11184867240491
H        11.37858173847888   -0.72076615959181   12.12220334719316
H         9.71883508886827   -0.13539011523406   12.19270568857321
C        12.07552622941021    0.19483549592741    9.69870094759654
H        12.09878198823107    0.16063793969838    8.61192222804725
H        12.69707856725683   -0.61622640234607   10.07255609199757
H        12.51002319332926    1.13288707434593   10.03646011675223
C         6.35875262467342    5.86071324148494    1.87190063529256
H         7.12670384832774    5.82700253634479    2.65116463981424
H         6.81074471662411    6.22702430824279    0.94608975058428
C         5.72075069820282    4.49618116943047    1.63621283953219
H         6.47837918085209    3.77466552639102    1.34208634999115
H         5.22170600833247    4.14510894734271    2.53671801131730
H         4.98298006085480    4.57626876041125    0.84184608113037

