61
CSD_code = LUJCEA | q = 0 | S = 0 | Stoichiometry = C22H28N8NiSe2 | MND = 6
Ni        6.49640600081664    2.20119304399820   15.05157714722174
Se        8.64037286889262    5.69783655939596   12.90145156261215
Se        2.59923102878675    2.77679710717789   16.98286066901901
N         7.88588286304963    0.97963291427912   14.30771235109216
N         4.36715405097302    0.49444836790048   13.59948937403139
N         6.26459530010428    0.69709863421184   17.79749529044832
N         5.49267711881617    0.03569826919180   15.65809013589532
N         7.62699605838429    3.75519351853705   14.78933535213926
N         5.06856584561439    1.62937299899965   13.46541737502291
N         5.20696834299799    3.17752074072127   15.77821957748400
C         7.87231466877915    2.07718994575980   18.10358953131410
C         7.97801771949209    4.54851907930631   13.99723822492062
C         4.15004136559982    3.00843932811031   16.25502904761939
N         7.09121768066375    1.54798909962831   17.17166158083573
C         4.29761439125569   -0.18800397900320   14.86918576488574
H         4.12894745593879   -1.26172395745911   14.67370094787588
H         3.43313472058627    0.20791940595999   15.42072815955419
C         4.77389847298516    2.13443177569459   12.27796879469004
C         3.59847984269775    0.26340812525587   12.50813004037825
C         3.85258405082049    1.29395147488789   11.63010579028697
H         3.42572209596406    1.43340519329438   10.65838441423257
C         5.35933526167063    3.40952383768164   11.80118532633608
H         5.96863322780829    3.84055348255072   12.59338686178493
H         4.56663738262102    4.10873222870540   11.54220322609592
H         5.97867017948916    3.25557039749054   10.91903112284425
C         2.68696144176137   -0.90244309835501   12.39141154444703
H         3.23177545363565   -1.84245862433869   12.48677817634288
H         2.19853502878647   -0.88347402424287   11.42153662573110
H         1.92130317410191   -0.87023815293494   13.16630969009344
C         5.21692970037763    0.01319590638421   17.08384372979640
H         4.26656585539982    0.53043927067513   17.27253791768426
H         5.13950425070697   -1.01842469903731   17.47369403207990
C         6.48768469401589    0.67981855013193   19.13145406986756
C         7.53106646046003    1.55094106167771   19.35921338858178
H         7.97893132294180    1.78772468293012   20.30212574526992
C         8.25547606609146    1.46178189848839   11.92312266452739
H         7.28888581953006    1.05255478441446   11.67309134887727
C         7.36963059593075   -0.37447691217004   14.08843529296517
H         8.19868423467616   -1.07228686345669   13.89592938638556
H         6.72290425117765   -0.37769686865087   13.21009875275865
C         8.69093267573867    1.48532211893139   13.24255688014542
C         9.93123546680307    2.04224416191434   13.53879590309743
H        10.26963667934153    2.07804343501883   14.56525969761708
C         6.59406406519209   -0.86308657394926   15.31063496060905
H         6.22577476863097   -1.88499523136569   15.12300394980487
H         7.28022317291764   -0.90085019488634   16.16076204888701
C         9.04475098451823    2.00191391624288   10.92412219238641
H         8.69115964675339    1.99029622508723    9.90376057932174
C        10.27265799214424    2.56446082645957   11.22453833868408
H        10.87730683589384    2.99666301002166   10.44265266051987
C        10.71236661432157    2.58560384523087   12.53696796786414
H        11.66341780196560    3.03167743545295   12.78384489177835
C         5.68320766482722   -0.14284066267513   20.06760901609928
H         5.75539273108436   -1.20373983510535   19.82450992197228
H         4.63361558197862    0.14661054897877   20.02021941082880
H         6.04036098020957    0.00567534559918   21.08236464275579
C         8.93790076014568    3.05619114778274   17.77294161461918
H         8.72690940105106    3.50215244230049   16.80215521699936
H         9.91350437753918    2.56913094394060   17.74480233489495
H         8.97278908994633    3.83785111159373   18.52729623543640
H         8.46495636459829    0.97252147963176   15.15244150164936

