36
CSD_code = LUJCEY | q = 1 | S = 0 | Stoichiometry = C14H16N5Pd(1+) | MND = 4
Pd        0.65043240370516    1.68892267068871    5.24850180354584
C         0.21381852009628    3.68604976427949    5.21406613548176
N         0.82445245612445   -0.35034447079187    5.14290884241943
C         1.20670984387100   -0.85405677189259    3.97565368201539
N         1.74464449952486    0.12665971748445    3.13587330443542
C         1.63345486648970    1.46839246256868    3.44583061764763
N         2.27817658658209    2.10400759040855    2.46599644173255
C         2.44859084703316    3.52965975269321    2.36914399230693
C         2.77234862764933    1.21283512030329    1.54644471914612
C         2.43875943293427   -0.03029645462531    1.96134837113169
C         1.02229638457308   -2.20358545437150    3.69928650949046
C         0.39126764163461   -2.97305609882293    4.67087214840683
C         0.14744316460162   -1.05143552483198    6.04421703779320
N        -0.28550386665771   -0.25272424151591    7.10775306755046
C        -0.19673616902360    1.12462803315922    7.04608443857316
N        -0.64745986016655    1.55293025661624    8.22642651890055
C        -0.71904035319971    2.92915798530174    8.64089938144308
C        -1.03258012252289    0.49809344043752    9.01570926920592
C        -0.80890602563390   -0.63822351861834    8.31748130454350
C        -0.08074042252877   -2.40876706475509    5.85112025809028
H        -0.70547886037369    3.90626515848245    5.76780235601059
H         0.07090201250957    4.04270993256568    4.18769809022273
H         1.03727238117329    4.25802634379627    5.66827056908094
H         2.29057095208511    3.97106316024360    3.35274308920671
H         1.73075161257537    3.95237566358462    1.66342081521173
H         3.45646405781620    3.75739715366652    2.02401980970643
H         3.31924350191129    1.52745834777572    0.68144312632014
H         2.65065050943762   -0.98503490669170    1.52765847412802
H         1.33668931526166   -2.64287949394942    2.76786161121710
H         0.23657636013352   -4.02504240777617    4.49136590800600
H        -0.06616841947095    3.52326596320293    8.00218147703541
H        -0.39551021452715    3.01889950319561    9.67730284928235
H        -1.74241850352758    3.29987916269853    8.55822413856067
H        -1.42698572265142    0.63527479719713   10.00158173207974
H        -0.96632579361611   -1.66069778300950    8.59005965906290
H        -0.61376164382507   -3.00520778868447    6.57184845099146

