70
CSD_code = LUJFIF | q = 1 | S = 0 | Stoichiometry = C35H31MoNOP(1+) | MND = 10
Mo       -5.04618460661164   -2.08886102434926   -6.16761377316835
P        -3.77767159688544   -0.42147976760144   -7.31592244024012
O        -6.54384411910162    0.04153384008239   -4.54548864124377
N        -6.11380229024111   -1.67172458338287   -7.93703879599521
C        -3.81815192400613   -2.89870599455124   -4.30461113987025
C        -3.07844403234847   -3.03815209670809   -5.49202131508602
C        -3.40768555853059   -3.78424756325348   -6.66333097326163
C        -4.63657508327800   -4.28909162044883   -7.02316142638030
C        -5.85898167774734   -4.27603033260802   -6.28536965345695
C        -6.07907412605869   -3.87343706692581   -4.97231478517830
C        -5.17252751478755   -3.21014708738712   -4.10945314440750
C        -5.99595343098056   -0.69662949868290   -5.22750166128515
C        -7.52670252987587   -1.31511959083098   -7.81290117274772
C        -8.13986268391423   -0.59738538257793   -9.01959170036814
C        -8.32778578430504   -2.54923740103435   -7.45304369749918
C        -8.98384258966922   -2.62515317876909   -6.23130129969046
C        -9.74379990611189   -3.73866234263821   -5.91283528454994
C        -9.85200447501877   -4.78750941975876   -6.81015921677258
C        -9.19879357835445   -4.71927818020151   -8.02975493314554
C        -8.44132264233834   -3.60579970706680   -8.35014139555203
C        -5.62908423265286   -1.83781948248418   -9.11412055437663
C        -4.22757372408560   -2.07373150170218   -9.42261887720838
C        -3.87953601806418   -2.88054624460125  -10.50573299332446
C        -2.55018789687482   -3.09547069859515  -10.82458526032550
C        -1.54874360375229   -2.48505545656355  -10.08539645549110
C        -1.87549715920315   -1.64207104425713   -9.03381293712939
C        -3.20468421986910   -1.42079302360794   -8.70547847559210
C        -2.34703939476675    0.41564074477459   -6.60698297567066
C        -2.13457388388273    0.34755381898004   -5.23501852927094
C        -1.06708407627201    1.02282253919503   -4.66973989138448
C        -0.21811696309307    1.76858424308394   -5.47163646919282
C        -0.44470346010789    1.85901720134609   -6.83744072393321
C        -1.51249494211943    1.19341038783081   -7.40887982709895
C        -4.62735327411458    0.96274561536270   -8.13862974482945
C        -4.56337016565859    1.20331260347348   -9.50775304831157
C        -5.23505967387666    2.28823846088461  -10.04579104933780
C        -5.96270237738157    3.13610335068557   -9.22695255046345
C        -6.01260001973302    2.90939907455474   -7.85974478851887
C        -5.34567575053023    1.82756633410894   -7.31594199742362
H        -3.31257001166582   -2.41842505405967   -3.47183466424496
H        -2.05444896304318   -2.67366109693104   -5.45599583885426
H        -2.60391545682331   -3.89884569611717   -7.38503182205042
H        -4.69503968761186   -4.75992512278464   -8.00117513356107
H        -6.70150560286858   -4.74210945811697   -6.78465949321818
H        -7.07791011971853   -4.03328669959603   -4.58017060925053
H        -5.57542170222745   -2.94561251087117   -3.13406246145246
H        -7.57094305782939   -0.61821614180192   -6.96873004900898
H        -7.49249733135275    0.21430930124915   -9.34738077723759
H        -8.34078733378474   -1.26723306455532   -9.85135512838129
H        -9.09132985154100   -0.17310503390710   -8.70998799580780
H        -8.91249673603742   -1.80259892647314   -5.53355559451337
H       -10.25738794745821   -3.78372819082968   -4.96452744801840
H       -10.44690971994708   -5.65318752590344   -6.56376003060459
H        -9.28278131090533   -5.53232452600489   -8.73498279482622
H        -7.93377263529266   -3.56584487269432   -9.30372731082160
H        -6.27526816992010   -1.77703336935851   -9.98597476112596
H        -4.65693662785576   -3.36073628144692  -11.08237161281105
H        -2.29462306152067   -3.73740516473236  -11.65308639624289
H        -0.51266066721618   -2.65474329702500  -10.33448363661759
H        -1.09572374832217   -1.15230564327482   -8.46773237502753
H        -2.82341065643151   -0.22266596198710   -4.62352915792012
H        -0.89940211861723    0.97322024181303   -3.60460496882022
H         0.61596552431624    2.29220052229706   -5.03066629565539
H         0.20906481628852    2.45621304784964   -7.45465895576519
H        -1.71113323112782    1.27789852034506   -8.46902615264769
H        -3.99110778756703    0.55001527084966  -10.15261414814306
H        -5.18636202895833    2.47290454763540  -11.10839073503598
H        -6.48465385061028    3.97867519385280   -9.65335585483995
H        -6.56811105914213    3.57770970272610   -7.22010522510351
H        -5.36282887897679    1.64685836600014   -6.24854897366553

