88
CSD_code = LUJGUU | q = 0 | S = 0 | Stoichiometry = C32H42N2O9P2Zn | MND = 5
C        -8.46090366757295   21.70970767751041   15.65860749128055
C        -8.12451013697922   21.50031510519667   14.32013093270120
C        -9.13642569027859   21.53268013555168   13.37016112722741
H        -8.88429196996601   21.38323463148142   12.32993133974793
C       -10.44943945665516   21.76483482949073   13.73595509107551
H       -11.22297441638389   21.79956650952666   12.98276576615228
C       -10.76844080017869   21.95472851389039   15.06790269513153
H       -11.79375854181714   22.13540941326134   15.35737123784452
C        -9.78495479181474   21.92638492164943   16.04686976661145
C        -6.69773080037804   21.27968626772030   13.92476899634381
H        -6.22253803316102   20.57970425898358   14.60782003259672
H        -6.14744029178460   22.21913656837176   13.98057447663878
H        -6.63335629713171   20.89802828248833   12.90834149695968
C       -10.11203027536966   22.14061752146864   17.49113304027906
H        -9.73872380600443   23.11036751119852   17.81980605487727
H        -9.62537265884366   21.37828055198850   18.09628316284499
H       -11.18638421994773   22.10716131469424   17.65405927218906
C        -5.81407213642147   21.50068123143270   18.65859016601828
C        -6.67579893413209   22.34413608731755   19.57978743371649
H        -6.05661371954490   22.79582873468298   20.35248543381325
H        -7.42113730460737   21.70749842017281   20.04966390152256
H        -7.17532342238184   23.12153224003427   19.00934384351901
C        -4.79554590953943   22.33226953271762   17.89047366779183
H        -5.30453564034384   23.10641450898341   17.32324697765263
H        -4.25528875320069   21.69017295982428   17.19688901703113
H        -4.08832357377857   22.78978580009528   18.58058371648422
C        -8.21789446626140   14.20380830333832   16.33791699263924
C        -9.22056553939491   14.74744941255559   15.53169697203246
C        -9.02632310844878   14.78523772533216   14.15823518968782
H        -9.80324084290295   15.19526959820775   13.52847925894022
C        -7.86188177711615   14.30001717276175   13.59305064046626
H        -7.72119946343281   14.33677935333986   12.52256592753995
C        -6.88717848126461   13.74601167757750   14.40139257894194
H        -5.98444530025269   13.34707862271685   13.96092966096032
C        -7.04937771224994   13.68194604999734   15.77883413093949
C       -10.48933819435578   15.24605128005371   16.14982111159332
H       -10.25736750479250   15.94704900392783   16.94756671161602
H       -11.04170852032493   14.41346093775030   16.58498809338177
H       -11.11577573157209   15.73446464355782   15.40695450840139
C        -6.01865045596467   13.02376052059396   16.64156679137702
H        -6.37471989636562   12.04100010622100   16.95151297484544
H        -5.84661456949576   13.60929467022564   17.53918691810500
H        -5.08405339333525   12.90014898419111   16.09993255207544
C        -8.80776883243614   14.89518688200024   20.23072228227276
C        -8.42775971286017   13.50812902710371   20.71832840756431
H        -7.34598815508807   13.45031539625226   20.81136470666107
H        -8.75542872185561   12.76719458439604   19.99451743061622
H        -8.88495267372478   13.29562210478493   21.68568815413395
C       -10.30759109892738   15.05914221972724   20.06485253117321
H       -10.67580242771666   14.33635994720290   19.34254648326987
H       -10.51626123255662   16.06223279853383   19.70137951212895
H       -10.81894137251689   14.90625939396622   21.01660498730709
C        -5.00528185295911   16.39820454456301   16.27869489604897
H        -4.75633143857406   16.21676607204910   17.31251260776287
C        -4.13815127502647   16.04052894937126   15.25692583636773
H        -3.19060554031118   15.57931819886253   15.48492903747813
C        -4.51373225998172   16.30438591145524   13.95173714081467
H        -3.86123070960353   16.06125674377688   13.12600602415343
C        -5.74669714899937   16.88852458839850   13.71919755422200
H        -6.05456410469194   17.11054406956711   12.71092248180569
C        -6.56731974752156   17.19700769180633   14.80079119416901
C        -7.90908349062700   17.77943608253322   14.64832321028528
C        -8.56808875640629   17.89502551851193   13.42542564083061
H        -8.09265610322555   17.58948469660303   12.50831434071848
C        -9.86346728057318   18.38033282716113   13.40389401094588
H       -10.39745912332256   18.46508513769985   12.46900285539431
C       -10.46756953535248   18.74135863490516   14.59672326601583
H       -11.48140472119399   19.10497042073781   14.62252240252264
C        -9.72945665271036   18.63030208097366   15.76413477184155
H       -10.13343576095044   18.91291995684985   16.72464254279623
N        -6.17850322728388   16.96077742270039   16.05610343110726
N        -8.49498202642424   18.16361823212580   15.78050964423134
O        -7.46832473648836   21.79930139586511   16.60769427665599
O        -7.95735706322958   19.75870272619658   18.13924435510780
O        -5.17739848707008   20.51075982757771   19.43954942227430
H        -4.83757612582383   19.83727283987468   18.83399182524516
O        -6.02287579209311   19.63761823072208   16.62017240007261
O        -8.42827490682905   14.12749883481176   17.69705278385244
O        -8.39536252997241   16.64487245077852   18.16468789660747
O        -6.41478503041506   15.22192931923387   18.88881231332026
O        -8.26706531777244   15.90466113897951   21.06875536452717
H        -8.67579789487069   15.83981283006810   21.94251250455711
O        -5.90527972865186   17.78565154576273   19.01372810938640
H        -6.24707574040454   18.20354574802714   19.81345170933332
H        -5.99055483491639   16.80701115754325   19.15735559995012
P        -6.86230286440652   20.55626327415600   17.46193309515241
P        -7.88866619932538   15.31596013886106   18.68802087079243
Zn       -7.29813756051366   17.98785681249120   17.46454293676907

