128
CSD_code = LUJJUX | q = 0 | S = 0 | Stoichiometry = C65H57N5Zn | MND = 5
Zn       13.48272774014333    3.15237899431896    9.76957258248518
N        12.13159436064829    1.43491560064174   10.05102341594739
N        13.29541312355263    2.94305882908544    7.95848673975181
N        15.24657275091008    4.41418821860936    9.37772452880753
N        14.13049958815350    2.85339555340879   11.45779195695210
N        12.06558807787495    4.71228806024536   10.14313135369722
C        11.88133604681576    0.78647753494154   11.22317425891668
C        10.89179942658983   -0.23316412627760   11.00189805910190
H        10.50078511038521   -0.89923138722364   11.74599441683360
C        10.57648856930298   -0.19815326450461    9.68257345963768
H         9.88316294841610   -0.83093201068912    9.16397755161893
C        11.37099384732533    0.84298090243198    9.08822809042464
C        11.48239943329409    1.21863660091948    7.74031790236809
C        12.40023820953029    2.17744814550444    7.32411035244467
C        12.43456264456486    2.36764466261343    5.88596206291464
C        13.41387468354204    3.31090217855646    5.67355679554858
C        13.91667428878663    3.63453619560247    6.99577862319713
C        14.95927519459995    4.55578146301283    6.98916942950392
C        15.62733669147440    4.91813391408190    8.17033698732704
C        16.79086306079994    5.74474359167027    8.34421949316770
H        17.30823739519726    6.27079964011915    7.56590444203277
C        17.11037385723694    5.70490699709082    9.66250361722275
H        17.93316367597126    6.19419854373307   10.14585950552952
C        16.14354897309748    4.85504835934478   10.30348205717970
C        16.08478090416852    4.42079795823250   11.63711406898314
C        15.13744081346102    3.49521989094697   12.06148995781840
C        15.29345553828071    3.09363838509863   13.44730017771451
C        14.30817029829422    2.15708903171210   13.66096067514122
C        13.61447310191165    2.04522910259913   12.39120835122109
C        12.59577742207403    1.09740965957643   12.39154485968505
C        10.85429220301772    0.76440944436364    6.48328749625787
C        11.43118374653989    1.45253030298030    5.37224416806122
C        11.02195451613890    1.20043640435107    4.08228023917831
H        11.49036073048136    1.74260825739656    3.27732189479233
C        10.02089003894650    0.25582418923798    3.83577948281547
C         9.46024511746742   -0.40043792605651    4.92386097522727
H         8.68223843895513   -1.13214423603422    4.76434734167131
C         9.86222582790055   -0.15782485488294    6.23466589981990
H         9.38723111928067   -0.69904169971619    7.03809979785591
C         9.53552947109914   -0.07102013948222    2.43175311375490
C         9.77456497917075   -1.56190532729890    2.15330592778368
H        10.83306047334707   -1.79615736304905    2.24622187456892
H         9.45236836349844   -1.81163285555839    1.14441266289834
H         9.22541946627495   -2.18848921170045    2.85042190523822
C        10.26312366431344    0.73616000168057    1.35288542459618
H        10.10229025176970    1.80356775225978    1.48705472729198
H         9.87872643145353    0.46003718542318    0.37285157224440
H        11.33103794063989    0.52999145596342    1.36407968849440
C         8.03581389612710    0.24252352556743    2.33226823996306
H         7.45923186732739   -0.35237721875122    3.03502569561424
H         7.67385400410466    0.02949717516149    1.32846119103487
H         7.85649395254738    1.29379155161253    2.54864322411358
C        15.13356462382416    4.88029103483833    5.55945342349117
C        14.20638283049984    4.12749416325183    4.77154450635722
C        14.17567794675424    4.25110900102059    3.40388058117454
H        13.46373401567944    3.66525687801458    2.84230382979772
C        15.05822044395637    5.12333766777504    2.75038555354218
C        15.94592430085174    5.85341066443572    3.52321401994111
H        16.63736056993754    6.53702019862569    3.05804951934901
C        15.99001041164077    5.74114653598218    4.91374233715828
H        16.70182323782965    6.33765471719349    5.46307183269477
C        14.99837954271243    5.22635974621676    1.23469923715613
C        15.26832367838432    3.84165131680854    0.62857039513928
H        15.24808559263840    3.89762918177573   -0.45792106173930
H        14.52369435652673    3.11677998657822    0.94518759790731
H        16.24709692940153    3.48083351477845    0.93793310660275
C        16.02958664453565    6.20391398160556    0.66476598284905
H        17.04179140421531    5.89250695174591    0.91218611094995
H        15.86399079212666    7.21136227349484    1.03959500932284
H        15.94233016434300    6.23111267709048   -0.41969275039456
C        13.60086616922736    5.71073701686040    0.82221301526970
H        13.53987433359069    5.80142429766453   -0.26037444227928
H        13.39556649522418    6.68440412701318    1.26267005613907
H        12.82884032871615    5.02002910391912    1.14978312986804
C        16.90504302161384    4.66190395242603   12.84148254392261
C        16.43026802217049    3.86053125844418   13.92452291173274
C        17.03384942439472    3.89656689524396   15.16122820563201
H        16.64101754799126    3.27076041897245   15.94566038796192
C        18.13490655725788    4.73038770434010   15.37998603457186
C        18.58314999416288    5.51136547819609   14.32264663656025
H        19.42939226469418    6.16728593465253   14.46327112906687
C        17.98435616270454    5.48718668339392   13.06578628961477
H        18.37768413112665    6.11892956046153   12.28462127334706
C        18.84736295633191    4.80522339651912   16.72178187821424
C        18.77371316387831    6.24471455867188   17.25080475391933
H        17.73563461387105    6.55052055941418   17.36475518137124
H        19.26099342066029    6.94110161055067   16.57416234775009
H        19.26281665510193    6.31345980553447   18.22036629473369
C        20.31493128655082    4.39526127892765   16.53307714772817
H        20.83764569279888    4.42166462248748   17.48706881582464
H        20.82768707953343    5.06232289641299   15.84582906997370
H        20.37405571907087    3.38465620145308   16.13422130112161
C        18.22654238405396    3.87979178230034   17.77203487343929
H        17.18948084441751    4.14540532205653   17.96441216654119
H        18.77543870545541    3.97337239680527   18.70711847357630
H        18.27733995521379    2.84021464656251   17.45647697251588
C        12.60386668758112    0.57312661155595   13.77216726998910
C        13.63581272566040    1.20750734553003   14.52957571515219
C        13.85534362578524    0.88654311411695   15.85022127222289
H        14.64836379915319    1.38997039277209   16.37833807480441
C        13.06015364280150   -0.07613919588162   16.47947799278497
C        12.05415266663450   -0.68014776019997   15.73625345561300
H        11.42208449711245   -1.42465912507520   16.19702998125804
C        11.81848666579978   -0.36790369079671   14.40005850065774
H        11.02038670051103   -0.87038163690081   13.87588103262964
C        13.26213359316981   -0.47721469509240   17.93273980467595
C        11.97660786879252   -0.18359518034462   18.71929639042419
H        12.10842257401293   -0.44999059170313   19.76603067631643
H        11.13486651376019   -0.74828094024655   18.32831825697667
H        11.73341944811159    0.87541996278177   18.66019229271856
C        14.41226265767619    0.28214170000150   18.60017648200076
H        14.22407449079934    1.35342586625519   18.60511780916832
H        15.35540614910886    0.08665097308811   18.09506576988727
H        14.51126339744081   -0.04542621358082   19.63328998237341
C        13.58019835407679   -1.97785359438199   17.99850363030944
H        14.47738994284456   -2.19696672177905   17.42323806736019
H        12.76531636349897   -2.57388781388030   17.59734543593185
H        13.74818004545328   -2.28100271638333   19.02996353503751
C        12.02682581502791    5.79242979608111    9.37441061756287
H        12.74836152600219    5.82629071351130    8.57064284267917
C        11.12576937808101    6.82524947333586    9.57474480030568
H        11.13106617731965    7.68524382322777    8.92367374883212
C        10.22502578054116    6.72727650796591   10.62340737470341
H         9.50769710648918    7.51267306200788   10.81100575289483
C        10.26579959579001    5.59832723028993   11.42626090014646
H         9.58428537809820    5.47848369382733   12.25372724006569
C        11.20356267068503    4.61795000519454   11.14679057359464
H        11.27083546985034    3.72013396533963   11.74441072510343

