33
CSD_code = LUJKIL | q = 0 | S = 0 | Stoichiometry = C12H15MoO2P3 | MND = 10
Mo        0.17402527194173    0.83222921408703    3.21971936216101
P        -0.72866013927286   -1.54132254878818    3.61274457556861
P        -0.54793675987931   -0.98188214441603    1.54864074466608
P         1.15088236921709   -1.57618748501927    2.65136315474959
O         2.30210603734377    0.44983235762723    5.41700663268503
O         2.71495525345795    1.45572754309993    1.58819972064611
C        -0.36619627153056    2.93850701912922    3.82863807531854
C        -1.16317433410007    2.05327952679076    4.63205041555771
C        -2.03975178430311    1.34742534977935    3.77170177386484
C        -1.81024202336874    1.79883886771888    2.43041750754594
C        -0.79332455641306    2.78458107889095    2.46717207767813
C         0.48070760377001    4.06139701349408    4.35233182783066
C        -1.19831166917015    2.03768450997806    6.12925139439788
C        -3.21612732823634    0.52164210296871    4.19388868894834
C        -2.71377214728874    1.51708558638477    1.26901767257349
C        -0.37582648552761    3.65704848052785    1.32378985009659
C         1.51145209995790    0.53281442886130    4.59130732387380
C         1.77241394545109    1.16928386942188    2.17442093333945
H         1.24719360614032    4.34262681765269    3.63151680068093
H         0.97542333370152    3.77911105570001    5.28060795628098
H        -0.14180593593198    4.93731324573486    4.54939154452539
H        -1.91828736717109    2.77505931306169    6.49102351617186
H        -0.22319039751935    2.28202831304864    6.54728389999432
H        -1.49347373098799    1.05957131968543    6.50499917892123
H        -3.05861425262189    0.08060569294679    5.17624891727160
H        -3.41237043826298   -0.28435942726509    3.48622685802744
H        -4.10510414822855    1.15525156238094    4.24007084532312
H        -3.55797341062195    2.21065233395500    1.29008473309835
H        -3.10828022123649    0.50225073607623    1.30824234017634
H        -2.19271491306948    1.64307337673270    0.32179165178058
H        -0.45302496725929    3.12654103798657    0.37644756437437
H         0.65246045263399    3.99521030758574    1.44206988527566
H        -1.02065669161455    4.53727954418082    1.27613257659594

