110
CSD_code = LUJZUL | q = 0 | S = 0 | Stoichiometry = C59H49MoP | MND = 9
Mo       12.60662640508189    4.67069518387770   16.24332921829044
P        14.04459041031149    4.50393966706872   14.25051192402154
C        13.09119510057427    6.73517684786867   16.61372337092861
C        12.09992664296456    6.43614665965935   17.65985274428317
C        11.04193274863263    6.40053540071948   16.69015327515120
C        11.96224954475515    6.73763647447162   15.61548371507954
C        13.27078716279702    3.79463171420649   18.00086024877254
C        14.01640263117313    3.33822449183632   17.01332389806230
C        11.41648939604537    3.39740527978536   15.02106962886332
C        10.81081570024645    3.58069898921702   16.16890440402730
C        15.68528590498858    5.31999913668223   14.33757304545716
H        16.22252608307866    5.18500482215249   13.39865074103496
H        16.25208586280257    4.85745790996284   15.14451402032579
H        15.58511755136823    6.38165617937909   14.54998749760378
C        14.61761589838732    2.83738786984490   13.75111545916329
H        15.15861432008366    2.91559630961667   12.80719053163914
H        13.76343808994444    2.17588426764584   13.61997871279526
H        15.27642479094199    2.42133799444547   14.50971642173829
C        13.43514998244024    5.04799903598693   12.60979640175757
H        14.27130444238691    5.12140457548410   11.91436515556638
H        12.93394781028393    6.01023159964667   12.67236951923883
H        12.72901282495321    4.30308322298723   12.24652883811160
C        14.24729773802090    7.63211307014544   16.72629158117473
C        14.14276656335255    8.99303468096237   16.43257242783013
H        13.19315294679314    9.39546862331496   16.11100523359870
C        15.24029182002415    9.82392355671081   16.56184004434199
H        15.14473908869207   10.87424997928289   16.32727619485046
C        16.45486283113095    9.32075365390975   16.99804857461084
H        17.30904148564293    9.97383886451832   17.09867907510421
C        16.56642550576669    7.97593171095782   17.31428676602876
H        17.50862474834502    7.57979429112761   17.66604636920734
C        15.47481599441397    7.14084429521394   17.17688051369930
H        15.55147938285378    6.08745432317045   17.42533197282054
C        12.13306886307361    6.57920273183050   19.10704743218644
C        11.15424492339731    5.99993297153064   19.92126937112164
H        10.37400129741647    5.40834588476157   19.47012353421810
C        11.17259187871643    6.17078343446009   21.28975713761929
H        10.40995596879159    5.70339932969782   21.89604384857906
C        12.16180616509456    6.93445026525908   21.88748083726246
H        12.17505571447863    7.06781770171574   22.95899617055338
C        13.12898689087672    7.52848487015480   21.09560692183011
H        13.90065962818708    8.13522771070069   21.54790004846061
C        13.11930587284814    7.35385611250135   19.72515024867554
H        13.87749482858889    7.83345356880287   19.12538944323909
C         9.58819300545310    6.37714155192932   16.75295670763135
C         8.91075510667207    6.95661766370392   17.82816795274108
H         9.47384738589981    7.42157027492939   18.62351646481313
C         7.52970788838310    6.95894861699866   17.87179999790749
H         7.02433096948781    7.40592455489392   18.71577378468367
C         6.79372088496490    6.39996564458611   16.84088727225653
H         5.71465602042619    6.39645009312620   16.88147660837337
C         7.45181216452721    5.85748778282103   15.74919307388133
H         6.88554520677788    5.43383299596218   14.93231519129924
C         8.83104959208330    5.84945661716963   15.70136325145777
H         9.33829754910904    5.41667451607197   14.84871673465116
C        11.80727976871171    7.59736876822108   14.45613876763712
C        10.55815101351628    8.07224674430141   14.03693907997917
H         9.66815135046637    7.78339434099145   14.57361431224324
C        10.44717317965227    8.92618367947594   12.95749230242214
H         9.46937980165934    9.27566591989785   12.65758497594612
C        11.57211851066327    9.34530238794314   12.26600072099305
H        11.47961583754124   10.01450870504818   11.42376568126329
C        12.81900106495533    8.90440447034914   12.67848382932071
H        13.70879637287969    9.23304315031646   12.15994924613421
C        12.93596807726158    8.04679079094349   13.75337074170805
H        13.91772461267178    7.71910822310959   14.06431604988969
C        13.25037307890947    3.62768882532722   19.43017632833919
C        14.11712641858089    4.37216485166628   20.23309238067056
H        14.79841481616852    5.07252615229790   19.77084764312323
C        14.09712402932383    4.22585677915361   21.60520954744676
H        14.76737546915555    4.81466749070048   22.21439183217341
C        13.22463058469072    3.33038940593420   22.20105901422992
H        13.20725766135717    3.22281335575214   23.27547672003119
C        12.38276297782745    2.56583777629658   21.41107899285502
H        11.71166406080971    1.85254094579942   21.86807003350883
C        12.39410739509441    2.70846993875617   20.03726128371433
H        11.74955132255135    2.09760981606222   19.42007696465233
C        15.12779592757455    2.41319217335134   16.98317292927477
C        16.43342290561558    2.82917377958586   17.24789157690222
H        16.62422113651771    3.86852221371502   17.47976146485689
C        17.47621876000423    1.92293669857187   17.22167320545169
H        18.48260476365709    2.25898707893389   17.42643752096739
C        17.23633272560677    0.58809157785284   16.94037697313545
H        18.05364757093778   -0.11709800998279   16.92041472876828
C        15.94139911962019    0.16120717192528   16.69127713547352
H        15.74771632325739   -0.88059727320622   16.48020467256005
C        14.89567252049427    1.06265092091823   16.70941098642360
H        13.88183652960351    0.73772869874182   16.51309421920191
C        11.13242907787637    2.64543527839825   13.82413032795774
C        11.41208580099809    1.27711510703023   13.76534652405710
H        11.85169973150784    0.79482001867137   14.62894525247844
C        11.12064156438108    0.55010237718711   12.62763496505150
H        11.34192046184386   -0.50712545330800   12.59696890959762
C        10.54396390485633    1.16887779800707   11.52985689111757
H        10.31789943720008    0.59827770801039   10.64163935876490
C        10.25132916591792    2.52230253611288   11.58138347680746
H         9.79194072669962    3.00859671898427   10.73265516327233
C        10.54175725834066    3.25735721396354   12.71473746739777
H        10.30493962641068    4.31292348423358   12.75532372961328
C         9.55451017755213    3.17294689436221   16.74715354617798
C         8.52615422857872    2.69715074422497   15.92534756547471
H         8.69070280487891    2.62530902390926   14.85987462827165
C         7.31074848682340    2.33044578621172   16.46544607114935
H         6.52360446655013    1.97107603843263   15.81805878935331
C         7.09391256589679    2.42403025397639   17.83131243924720
H         6.13789040555418    2.14440598329054   18.24890907900813
C         8.11160686932685    2.86968741402702   18.65770903271163
H         7.95396374583629    2.93260158344583   19.72495711826345
C         9.33009780201315    3.23716339673961   18.12168752781081
H        10.13016078911360    3.56645696976373   18.76642071651185

