50
CSD_code = LUKKEH | q = 0 | S = 0 | Stoichiometry = C12H27B10Co | MND = 11
C        -0.20433900262963   11.67558269666111   11.29667559849036
H         0.70953521486854   11.94831558355923   10.77122419409180
B        -1.47017623066528   11.52250759416408   10.42263216928366
H        -1.43284742673628   11.70583756634870    9.25631477257741
B         0.02089446410245   11.09700063727844   12.77923229133450
H         1.15577763761586   10.96166695334669   13.08281868616759
Co       -0.82397969880411    9.73826353109472   11.38634107571466
B        -0.76901759267537   12.75681345461287   12.46594132911127
H        -0.12278289644470   13.74392073125816   12.49514629347343
C        -2.88750486626527   11.20684142346707   11.07301523459291
H        -3.63897865920526   11.04230938521765   10.30563509118101
B        -1.32543350353384   10.08709936842836   13.37013053802395
H        -1.07111204006531    9.15907900139955   14.05481628033401
B        -1.07570548386858   11.74992732712979   13.97399658029302
H        -0.60759692767327   11.99990206442474   15.02649546876531
B        -2.48084599739998   12.76093757415801   11.55606431143797
H        -2.77466470364748   13.66683786503853   10.86725984497503
B        -2.76527298587646   10.10752959793695   12.32163936009897
H        -3.47453206238309    9.16670190824200   12.22876297224489
B        -2.34528263367708   12.77230970455419   13.27008280438288
H        -2.66784682240302   13.74184304950909   13.85894190119461
B        -3.57448381139992   11.71947633275477   12.49869512344633
H        -4.74539735894761   11.84046070578193   12.48331689859587
B        -2.69467439375740   11.09522713905345   13.85462033404014
H        -3.29753593295422   10.80783531866728   14.82558995203384
C         0.84327257686005    8.80427088102251   10.42767880801022
C         0.43521785332678    8.09751959295188   11.60181377170156
C        -0.90964340146328    7.66894457838925   11.40819153954612
C        -1.32912200660888    8.13027455752810   10.12360270343705
C        -0.23596974522155    8.80448625092740    9.51229139057067
C        -0.17703764469115    9.27365345648802    8.09349213811831
H         0.24795879289578    8.48867997861172    7.46460448718728
H         0.44730470749814   10.15860797840985    7.99326474429048
H        -1.16791058050893    9.50847459156042    7.71371809103681
C         2.22958420192914    9.29590279883730   10.16235641031657
H         2.86733321715361    8.46283747469378    9.86082175398563
H         2.66245542670453    9.74248680667585   11.05480144037862
H         2.23970657579251   10.03375817222076    9.36405044130013
C         1.34362307553951    7.67479198674477   12.71008358977255
H         1.83768355371867    6.73875708600206   12.44217762057335
H         0.78986036748215    7.51654111393509   13.63093036252208
H         2.11013099247716    8.42254088873425   12.89436319274371
C        -1.64184501914514    6.68306455041603   12.26161568630255
H        -2.71736344841129    6.81660721045854   12.18495706438554
H        -1.35888272599151    6.78395336645832   13.30560382538619
H        -1.39948803047819    5.66928037367914   11.93616033287487
C        -2.61881221205700    7.77756686704111    9.45405237247069
H        -2.90592342450366    8.53429830255061    8.72753828796963
H        -3.42024126479670    7.67551876722141   10.18115178062511
H        -2.51608812307931    6.82635585435547    8.92808905859448

