55
CSD_code = LUKNOV | q = 0 | S = 0 | Stoichiometry = C26H24ClN3Ru | MND = 9
Ru        4.48649434166788    5.03862481414192    7.27583333211434
Cl        3.55193764496505    7.10155259705027    6.67086296200009
N         5.33302091362668    6.05597862617048    8.78597042574319
N         2.89125131563396    4.85248883287062    8.48236536602038
N         2.33209013505756    7.00380575432318   17.15976763605706
C         6.46646799052957    6.72339311919141    8.63059556974183
H         6.96340975739375    6.78625063051655    7.67708837453256
C         6.86432501449763    7.32837364388044    9.83571062534816
H         7.74511248790021    7.92356385034327    9.97776266040750
C         5.90680626328197    7.01040478152072   10.76594456690417
H         5.86385084666570    7.31385440506420   11.79342083786230
C         4.93284320571632    6.21961800326777   10.09687374851583
C         3.71318573659849    5.76545713663883   10.60209791253136
C         2.74488718665609    5.12448938198077    9.82788214957138
C         1.45204179598151    4.69289481604958   10.23301626209785
H         1.05843201307339    4.75013629808104   11.22862154261503
C         0.82731695362158    4.21035225624890    9.11063094166096
H        -0.16541897285682    3.81197538295166    9.03191004183925
C         1.74990009069224    4.33370699448405    8.05660638891979
H         1.59257077824053    4.07595003414886    7.02291705569822
C         3.41152362306341    6.03361411017864   12.02049816696027
C         4.21142376104446    5.48933936136079   13.02317172700528
H         5.04728918927397    4.86200322247692   12.75183536373936
C         3.93347412461467    5.73456984672976   14.35226637128248
H         4.54851589647083    5.30796907359424   15.13093361964370
C         2.84920170297295    6.54355917136278   14.69504434521764
C         2.56320217361314    6.79968366003386   16.05553263498456
C         2.04952098565341    7.09969591671744   13.69544191766100
H         1.21597125887327    7.73017821269246   13.96749011674625
C         2.33020021371375    6.84003322645731   12.36966036103276
H         1.72396032438544    7.27467877761065   11.58971570539336
C         4.35712764783858    5.43485182861920    3.83369741205901
H         3.59331634867347    4.91695724555180    3.25780692365454
H         5.20238053742786    5.66852012110626    3.18928663421628
H         3.93409463590522    6.37720613958679    4.19477276672281
C         4.78944411812002    4.62424903579477    5.01329785861791
C         6.05789279734966    4.84771177511743    5.60849222306177
H         6.73429452490186    5.56756738370357    5.16146087148006
C         6.47166329239156    4.07791073008996    6.70796061249880
H         7.47573042276885    4.20919535316327    7.10199629241403
C         5.65188350186205    3.06079523155408    7.25716379147004
C         4.37933194042475    2.87083666790281    6.67301526014527
H         3.74341505270362    2.06665437280290    7.02951522025724
C         3.96946857760455    3.60911785208576    5.53846035056919
H         3.03987610161349    3.35960135030874    5.03902357704242
C         6.14953889522973    2.18137902859464    8.38059445270286
H         7.15382172286439    2.52283743122657    8.65869044437068
C         5.24902057126659    2.30990007116684    9.61163267057648
H         4.24666308234634    1.94232634786233    9.40363838634414
H         5.17562612939129    3.35490512934808    9.91204111426926
H         5.65918500728919    1.73590523358745   10.43926903391372
C         6.24998035710816    0.72431123352808    7.91969610347571
H         6.68060777525175    0.11386917865832    8.70953605898942
H         6.88301968785906    0.64429319458930    7.03817611332938
H         5.26830851917676    0.32450212591924    7.67690709797961

