56
CSD_code = LUKPAJ | q = 0 | S = 0 | Stoichiometry = C25H24ClN3O2Ru | MND = 9
Ru        0.09804464307761   -2.83526439304810   14.15356137495667
Cl       -1.01390967411287   -0.93216029696645   13.36227149851292
N         0.41489034077025   -3.25796999497237   12.21871980805861
N         1.76329664629392   -1.72184698738718   14.03394312494180
N         6.93023428739869   -1.77683687258146    8.14157156034137
O         7.21678395479471   -0.65945178350305    7.76707517073310
O         7.49802046084805   -2.78918470545822    7.78786808271170
C         2.14343566318628   -0.92464576117487   15.01980689905003
H         1.52120466693135   -0.75034521375412   15.88130505551524
C         3.40366778192278   -0.35900679146366   14.75361085335159
H         3.93688959862068    0.31468495677853   15.39544178457828
C         3.79721577025310   -0.84223528379087   13.53134686664577
H         4.70941688591709   -0.63504689638492   13.00776509791510
C         2.74578616805690   -1.67867107401020   13.06464599445936
C         2.64478242835427   -2.32015451676257   11.82912656286551
C         1.52615107957462   -3.05200846218728   11.42586307572644
C         1.26267954861242   -3.59454071406764   10.13789176455559
H         1.93642651049569   -3.57454802784124    9.30414166277390
C        -0.01439259557878   -4.09508364258166   10.17421864700411
H        -0.55621310264002   -4.56850881814445    9.37908594931574
C        -0.49814326713928   -3.86236878360441   11.47425762412672
H        -1.47747357035582   -4.09730086360422   11.85614027867041
C         3.75471197912129   -2.17428418276540   10.86976708644519
C         4.44333212691178   -3.30244377468945   10.42414966295285
H         4.15905840683351   -4.27627566785481   10.79201841662143
C         5.48767543397386   -3.17643806586768    9.53181026261958
H         6.03673349523330   -4.03673853213769    9.18058219208251
C         5.84075302895632   -1.91232549053155    9.07320162698723
C         5.15756839404045   -0.77865476217023    9.49912212107682
H         5.45110701071126    0.18773984593856    9.11853401832712
C         4.11971734521377   -0.91365060658074   10.39819512194565
H         3.57056581349961   -0.04697897904586   10.73135481686733
C         0.57874622695107   -4.82813560393294   15.18928225046530
C         0.76365235480638   -3.76228156638938   16.09774535214637
H         1.70088056618491   -3.67811488579325   16.63865327295066
C        -0.29385167158350   -2.88311105851333   16.43027552479347
H        -0.15844941383051   -2.15152798281296   17.21908955210089
C        -1.54123519895792   -2.99292718969620   15.79092326250275
C        -1.73175333454291   -4.03953795769715   14.85066623281723
H        -2.71274673493421   -4.18708480388189   14.41314431619880
C        -0.68881756669538   -4.93420350025292   14.56325180668627
H        -0.87612653896599   -5.77563762735996   13.90185651021013
C         1.65837426108973   -5.85546992091325   14.93959574492547
H         1.28249704096038   -6.56814551173480   14.19580136231183
C         2.91716931839002   -5.19754135583543   14.36941880261456
H         3.35860663399408   -4.50880750464373   15.08620214695288
H         2.66994682241974   -4.64088660642114   13.46597330008191
H         3.65747647775300   -5.95479283051298   14.12229872086335
C         1.97289183119559   -6.62598129878257   16.22533879706594
H         2.69357502112155   -7.41334186935884   16.01921007263947
H         1.07099487217387   -7.08135858915580   16.62946930897826
H         2.39471610871042   -5.96674741673766   16.98031957997857
C        -2.65970269161790   -2.05309437469978   16.10838154483968
H        -2.68273480003673   -1.26843058198556   15.34613597705281
H        -2.51617669801956   -1.58232669296199   17.07840046196985
H        -3.61845014636371   -2.56766812772078   16.09237203612937

