64
CSD_code = LUKQOX | q = 0 | S = 0 | Stoichiometry = C21H22AgClF3N3O13 | MND = 6
Ag        0.98717794235144    5.78710751293600    1.11510954281338
Cl        1.41143322097123    8.11582715757915    0.01450507573154
F         7.63279826223441   -0.61008209780123    9.05768595185381
F         8.25422250044166   -2.15561570631618    7.69950752076426
F         9.64020717376140   -0.61825932477111    8.28147097328925
O         9.06730190401828    2.09581794707512    2.76225745920213
O        10.56091204434861    1.27048878465488    4.06578089584728
O         4.30985018711023    1.05591133554766    4.19000190654908
O         3.99623909302368    1.10156348389286    6.31880334835666
O         3.07999416852010    4.46494244932223    1.14382496389210
O         0.96778795816452    3.69978125215366   -0.41051296962191
O        -1.30734402246141    5.10547317515571    0.50401797859038
O        -0.57964829689095    5.67647292941842    3.17368510152628
O         2.14429680002981    5.62794964612825    3.29557841419015
O         1.13343512433853    7.11520062212781   -0.97528427181474
O         0.30228223561293    8.16486608475074    0.92386837867673
O         2.56218794606970    7.69936561144342    0.74921737931665
O         1.61601314942068    9.36434850966078   -0.58586067052292
N         9.40912059867362    1.53559294603355    3.80008466458264
N         4.70671059475689    1.08172528029834    5.33755280213640
N         6.67266903596052    2.45136281622299    3.65203965446085
C         7.90939740291197   -0.00301489846233    6.79183721753125
C         8.81206572451891    0.40096814618812    5.82493270770917
C         8.40040783901758    1.17005074153280    4.74252072522950
C         7.03875968209406    1.58129832244456    4.59753784355146
C         6.12998390861218    1.02531369317884    5.54505706482813
C         6.55877429689872    0.28748741906866    6.63141513725963
C         8.36152756375422   -0.83810615172831    7.95699292106348
C         5.51971821963084    3.24860102084043    3.61423988193183
C         4.89336297320984    3.45009965623496    2.38495039258020
C         3.76455844260849    4.24299263887734    2.29358951964233
C         3.25943091284355    4.87144596674770    3.45772758330465
C         3.91251825644524    4.68347409574474    4.66600161318307
C         5.03745194442876    3.87975683625259    4.75046255071308
C         3.30177814880259    3.61199179252795    0.03679626834130
C         2.23240263936432    3.92013862566184   -1.00853353012701
C        -0.13013448502977    4.02285095903216   -1.24611066549130
C        -1.38347137694992    4.00772297204194   -0.37758630864362
C        -2.22703766222666    5.09043748221602    1.57288660618367
C        -1.78093356626736    6.14211275966169    2.58305430338064
C         0.10088267780870    6.64911872224727    3.94505381951880
C         1.40489968770912    6.02285635247311    4.43453224546672
H         9.85738471628724    0.13550743717601    5.89508291616524
H         5.82378308233494   -0.08263968039765    7.33159956980960
H         7.37311459425419    2.60649017026491    2.92062512000983
H         5.29298595792949    2.95007790820585    1.51875913529482
H         3.55204740228727    5.16001397275450    5.56221515994428
H         5.53392277992907    3.75676646912620    5.70125516584947
H         4.29244069383459    3.79013990189826   -0.40015706061809
H         3.21449420648602    2.56618504222243    0.35961252533579
H         2.36433172294153    3.25202043248335   -1.87247869621472
H         2.31735884268974    4.96576755242712   -1.33435234156792
H        -0.21815691612195    3.27971682346229   -2.05183517276184
H         0.00038384203538    5.02609494892627   -1.67116831544343
H        -2.28082303938402    4.08536601593737   -1.00801984670205
H        -1.41805154492489    3.06734360161300    0.19050436935054
H        -3.23887558490531    5.32040130599893    1.20967879054294
H        -2.22936245357865    4.10333719949939    2.05647604812658
H        -2.55077747728561    6.27579646139993    3.35672860928233
H        -1.60283324302398    7.09018618081315    2.06009392493449
H        -0.51054345734479    6.94228637677439    4.81129200501944
H         0.31778099390837    7.53357063974591    3.33053382793236
H         1.96105229889621    6.76314879013830    5.02341337497704
H         1.18295173211757    5.14188488122936    5.05124889375733

