67
CSD_code = LUKQIR | q = 1 | S = 0 | Stoichiometry = C31H32N3Pd(1+) | MND = 6
Pd       -0.92458061115062    1.09365115210495    5.08374004886542
C        -2.00405593219536   -0.44490059647302    5.84566703716903
C        -2.18170171975520   -0.79301873351790    7.17438146813095
C        -2.96043673322265   -1.89503115161123    7.50336302624375
C        -3.56905428994629   -2.64627055892343    6.51476794497896
C        -3.40010582323041   -2.29276728318906    5.18862153020163
C        -2.61927310800147   -1.19396130780871    4.85523186673350
N         0.03397613183007   -0.10323155836552    3.41957397529473
C         0.37719961820881    0.59675479155782    2.33186003894095
C         1.04601058289525    0.00179128046284    1.26264384069271
C         1.34972248383347   -1.34695910715822    1.32307944790699
C         0.97740409694757   -2.06476884681175    2.44913650957386
C         0.32477224982686   -1.39702947701984    3.47283057785809
N         0.02558527712638    2.64872362866901    3.52613776104017
C         0.06495237874879    2.04027841725004    2.33015947046199
C        -0.14775809013220    2.73784364980124    1.14280902036081
C        -0.36933395958010    4.10332683819596    1.19170662266754
C        -0.34140513622327    4.73601644772414    2.42349765791036
C        -0.14689495296587    3.96411947534253    3.55813966942879
N        -2.73266358412818    1.86488352390268    3.79288623536799
C        -3.18538255726872    1.56739368216810    2.59935106739667
C        -3.88723396077049    2.47229977054459    1.78982906775156
C        -4.09120855617714    3.74700800406416    2.24485676040640
C        -3.60748855450181    4.11113063731628    3.51767106208086
C        -3.70908392532569    5.41648931146969    4.03943256545788
C        -3.16645345918212    5.71018331038066    5.26051814090563
C        -2.53893418982639    4.71774133356716    6.02617401065228
C        -2.44379585120006    3.41768412122551    5.57873919572110
C        -1.89147963527076    2.32177794436121    6.41197220722103
C        -2.95123186382946    3.11140437184204    4.28342281978307
C         0.56773104249880    0.53214765222233    6.43901848489489
C         1.89023150088124    1.29019140105191    6.38876563538814
C         1.66291774351232    2.77566830596451    6.68444692920107
C         2.78903032002277    0.69521980207696    7.48694260403219
C         2.60493955335300    1.12845755221918    5.04410663236752
H        -1.73286965165839   -0.22662103907228    7.97818548318082
H        -3.08995432323049   -2.15775820240578    8.54215501479292
H        -4.17506215077903   -3.49973721308527    6.77569797458794
H        -3.87380859545655   -2.86683756585754    4.40621366141475
H        -2.50662881998094   -0.94438470669855    3.80472701373130
H         1.34716259422850    0.59028199072195    0.41127629011620
H         1.87113816858520   -1.82606429194937    0.50907126926538
H         1.19249799689080   -3.11702341308923    2.53759998206394
H         0.01496331402850   -1.92366616111841    4.36788345033792
H        -0.16184188793440    2.21698905291636    0.19896932784646
H        -0.54683803021796    4.66131072749904    0.28548224288231
H        -0.47608283479909    5.80146738281038    2.51091555608504
H        -0.12558723152894    4.43168400161767    4.53406515192674
H        -2.99054524523283    0.56604370683278    2.23258584101478
H        -4.24311939325492    2.15541659411635    0.82270529052169
H        -4.60662162451203    4.48142519131297    1.64383654207997
H        -4.20981515690480    6.17322972452168    3.45537319497880
H        -3.23045646818625    6.71276718655349    5.65453139537288
H        -2.14398028839631    4.97538371809885    6.99809636805113
H        -2.73184634205888    1.76188760072205    6.84209265587931
H        -1.27729597428672    2.71625489438944    7.22788811908890
H         0.74866512455991   -0.53276734274799    6.24523811317564
H         0.16104238556672    0.63460546356260    7.44958266607602
H         2.59089937866413    3.33231367525970    6.57900207610547
H         1.30080060503237    2.90953477887205    7.70160999776072
H         0.92889406663876    3.18444339496089    5.99047401109566
H         3.73280872836936    1.23349512818723    7.52263977602139
H         3.00038256323916   -0.35257842934995    7.28841358905547
H         2.31639433603749    0.77192381323750    8.46281780198672
H         3.60082107898422    1.56262996799208    5.09672974692202
H         2.05935173926623    1.63708404287746    4.25247975782390
H         2.70881545252985    0.07551854373057    4.78637970567863

