61
CSD_code = LUKQOY | q = 0 | S = 0 | Stoichiometry = C22H20N10NiO8 | MND = 6
Ni        0.00165068548651    6.56618808155213   -0.00066438867864
N         1.67463402921603    5.88446280654320    0.56737691973629
N         5.30699111568109    4.30951275724715    1.85895501454476
C         4.11041962287193    4.86036554788770    1.43565489253424
C         2.60587331897665    6.68143184039238    1.08690176519855
H         2.37313175494285    7.73527022411109    1.14713269634566
C         1.93717708240947    4.57984272798327    0.48285029311568
H         1.17844799302547    3.95850121208139    0.02823681846460
N         5.35732492759172    3.00313544177368    2.22946817374665
C         3.12659948873818    4.02554562089517    0.90361322515502
H         3.30730472484208    2.96578285351472    0.83068170233397
C         9.24588296614218    5.16053252024178    2.52719022084091
H        10.29511335053887    5.32352086586458    2.72018966516014
C         6.55854631208172    4.85717696830267    2.01144651094573
C         3.82817231638358    6.22037605988828    1.53520919717566
H         4.52654083075175    6.90966998236325    1.97812841941852
C         7.33288288508297    3.77801154541378    2.50647236365370
C         7.13950441091884    6.08808269538430    1.73623837500626
H         6.58352188133383    6.90708996473244    1.30967750932946
N         6.51027248720149    2.69199591687084    2.61186412475799
C         8.69018499160963    3.92754190163813    2.77813072166075
H         9.26554522698431    3.09969028397322    3.15768689266751
C         8.48550584174754    6.21447231826536    2.00705363728070
H         8.97184031090185    7.15698336807799    1.80599924043582
O        -0.12297756315411    7.75292585647324    1.57333246912197
O        -1.33965888160885    4.77878688095206    1.01543375464462
N        -0.04322197429004    7.29743230576689    2.75589756814457
O        -0.09598410955417    8.07488306785714    3.67162051995445
O         0.09325295200189    6.08758110635004    2.90098120659540
H        -0.99098360172947    4.98029578048472    1.90213524292389
H        -0.99898283319477    3.91379603148716    0.77678334733091
N        -1.67329559659046    7.24624565639771   -0.56815747242019
N        -5.30860690149732    8.80916772413379   -1.86520967696886
C        -4.11032424333238    8.26361093863127   -1.43989068570159
C        -2.60154537320136    6.44661882708272   -1.08919696025956
H        -2.36607218489639    5.39333470768473   -1.14857525907396
C        -1.93945441018036    8.55013791508574   -0.48397692359757
H        -1.18269803075242    9.17349618698090   -0.02876704238355
N        -5.36460096027139   10.11220974443659   -2.24590472958054
C        -3.13012918799748    9.10122402800584   -0.90584669069852
H        -3.31413784398109   10.16038935729684   -0.83238090578399
C        -9.24478830471960    7.93623077964420   -2.51767059583657
H       -10.29378944591619    7.76717215505662   -2.70667686398824
C        -6.55808816995357    8.25532253421733   -2.01106643438338
C        -3.82402555912691    6.90447320018976   -1.53996184497235
H        -4.51947060850267    6.21384150870472   -1.98549604466378
C        -7.33768362919425    9.32717178755843   -2.51342659361996
C        -7.13291051896744    7.02435982922721   -1.72357760347890
H        -6.57198372579033    6.21182581653907   -1.29107517611452
N        -6.51950743735030   10.41556742270873   -2.62901279035628
C        -8.69495043597961    9.16934117490501   -2.78078591152568
H        -9.27493631138710    9.99119517176698   -3.16628028413386
C        -8.47896647715924    6.88997428659885   -1.98996618977722
H        -8.96098018798548    5.94733724178340   -1.77931740252703
O         0.12859006980069    5.38406813440071   -1.57748165508686
O         1.34595931482086    8.34930531301468   -1.02028924031461
N         0.03706583611990    5.84131546050480   -2.75856632676972
O         0.08411517331540    5.06554227832912   -3.67595221511400
O        -0.10440359708309    7.05099744182996   -2.90037276481628
H         0.98804528513453    8.15457913051346   -1.90485181419654
H         1.00906091869860    9.21305971238542   -0.77194400141998

