53
CSD_code = LUKREP | q = 0 | S = 0 | Stoichiometry = C22H22N4S4Zn | MND = 4
Zn        0.00041644477489   12.58754870988222    2.08113870505630
S        -1.42716242548709   16.99132962680239    2.53423791272856
S        -1.31421082822982   14.38950900711732    1.25827480376302
C        -0.70987300357003   15.40493790672098    2.50708022574664
N         0.78012488434456   13.96428502761098    3.44533568947412
N         0.16051298643018   15.15421860325407    3.43123586991134
C         2.97336500815171   12.11706615705889    5.62941765565302
H         3.01936929668513   12.78943975289278    6.47839242942324
C         2.26496978224221   12.49786596605901    4.54488027691941
H         2.19191987484705   11.84869859698536    3.68404257758661
C         1.55928184522797   13.72122017082213    4.45187354230467
H         1.65609335764122   14.46819330533268    5.23761182732663
C         4.21991091891592   10.54740319767570    7.03808059160713
H         4.15764146234377   11.27101821465617    7.83873037443836
C         3.65221070353556   10.85357968802255    5.79490604008985
C         3.75472987915862    9.90411287692822    4.77104446281157
H         3.35157577654924   10.11221749321084    3.79302191857121
C         4.84902821605886    9.33794288463900    7.25341670146922
H         5.28034538912104    9.12029074902870    8.21959133734592
C         4.92731969525692    8.40352112898108    6.23233242489993
H         5.41647967610125    7.45584716118579    6.40126105060652
C         4.38059265723865    8.69426545923788    4.99156058321707
H         4.44107756522229    7.97425176852737    4.18913827564815
C        -0.63235154044346   17.72730424927618    3.99011359664460
H        -0.90322576612475   17.15005877181173    4.86781910257123
H        -1.00959723401363   18.74158507575912    4.06378547449818
H         0.44239786685703   17.72340263045130    3.84705474541904
S         1.42668370319899    8.18307175807655    2.53255664956513
S         1.31573791082457   10.78592870807750    1.25855417245907
C         0.70989226888182    9.76970107790781    2.50598165162699
N        -0.78004117180622   11.21030567461667    3.44440320865335
N        -0.16070399196861   10.02024317590389    3.42998432838691
C        -2.97251611625614   13.05800442909482    5.62879813368014
H        -3.01792480146413   12.38606501832461    6.47813295933230
C        -2.26469836920084   12.67679108974222    4.54404066340673
H        -2.19234673601562   13.32551963121312    3.68280529816549
C        -1.55887988251308   11.45349566449461    4.45115632503059
H        -1.65547514977156   10.70664139299316    5.23703318774663
C        -4.21781005403890   14.62859156396262    7.03754195174115
H        -4.15411440667472   13.90584331677211    7.83885308865155
C        -3.65156739221616   14.32142669117952    5.79395324989771
C        -3.75571971716990   15.26985888315661    4.76929861937455
H        -3.35392223149565   15.06086089578223    3.79090319523333
C        -4.84701047544474   15.83806645200264    7.25253047880367
H        -5.27695407133028   16.05659841906602    8.21910964148518
C        -4.92687314067782   16.77149878675909    6.23066416521919
H        -5.41610183851879   17.71918605011317    6.39931454088968
C        -4.38165840428554   16.47973407268051    4.98946534783616
H        -4.44354569553213   17.19889367728610    4.18638004671202
C         0.63006504476983    7.44611988438456    3.98694972178242
H         0.90038442996632    8.02235897136019    4.86547846764693
H         1.00670568909039    6.43157191587692    4.05997340214286
H        -0.44454788914057    7.45070861925799    3.84285930884844

