53
CSD_code = LUKRAL | q = 0 | S = 0 | Stoichiometry = C22H22N4NiS4 | MND = 4
Ni        8.74168070729757    4.97010799900231    1.81083539524807
S         6.61409955886029    4.22007711824429    1.96510249859024
S        10.98539794354684    4.71169100448784    1.70665788208050
S         4.95285437652376    3.42976537584627   -0.33679389136395
S        12.75400168991084    4.52961000919448    4.05654241127304
N         8.96395774731040    5.16715745163899    3.66804060375409
N         8.50059312684520    4.93239180405707   -0.05423802524520
N        10.17879234949339    4.98763311387670    4.22467936717843
C         6.44952655412019    4.07362142464389    0.26791502754236
C         9.34283226164627    5.44540891154479   -0.91674959077180
H        10.28246234005222    5.82565630621066   -0.53529627011282
C         8.01755317826406    5.55799342820756    4.48527612671256
H         7.02199119977727    5.68160876746078    4.07714893704603
N         7.36170182203620    4.43440786418245   -0.57686189708781
C        11.15854480975629    4.76340239847962    3.40869962154377
C         9.91203273742511    6.09615549586881   -4.60870184695466
C        10.02744288541619    6.01101173255596   -3.17291867436689
H        10.95775741292212    6.38405245264598   -2.76058627041594
C         9.11002559527564    5.50915653865263   -2.31704078515632
H         8.16583731578905    5.11730645176848   -2.66268372654698
C         7.25924632407664    6.40348828525116    8.10245667773399
C        10.98278410639580    6.62411502162382   -5.34081021071626
H        11.86594256275328    6.95819127594043   -4.81509899175289
C         8.21017861624110    5.80197318477232    5.87175882095182
H         9.21254642031137    5.66447890069151    6.24728438330923
C         7.19031602265514    6.16289975205693    6.68147412903039
H         6.20722677428315    6.27910434397613    6.24004168883553
C         5.24676656939089    3.51546855913799   -2.12760565023336
H         5.37323239022785    4.55401937711567   -2.41488215167434
H         4.36924139023940    3.09098024228640   -2.60365031738969
H         6.13325119820769    2.93852990215982   -2.36822002147522
C         8.77985201649330    5.66904058084540   -5.31283911050976
H         7.93707514653615    5.25784677977370   -4.77952285688931
C        10.92621269655281    6.71906877088968   -6.71632513981425
H        11.76342632547191    7.12771153673532   -7.26270616393429
C         6.09504536512858    6.97581205062069   10.14595030362305
H         5.17850515337779    7.23614280918569   10.65447739474341
C         6.08523563154057    6.74460299703812    8.78555665993550
H         5.15943431456542    6.82415533439371    8.23370621773174
C         9.79750775633563    6.29019726566943   -7.39669730224000
H         9.75142194835865    6.36348951024352   -8.47289689430044
C         7.27872597415700    6.87384719749193   10.85960311670988
H         7.28829106149176    7.05353434390416   11.92417481499328
C        12.42739096239402    4.71229923892053    5.83444510147079
H        12.06884371205849    5.71820411288689    6.02581426264721
H        13.37163410374385    4.54008144833331    6.33993133600899
H        11.68916607590615    3.97685276898235    6.13534733020293
C         8.72694570595496    5.76642526996274   -6.68811987090476
H         7.84552329947864    5.43197344636549   -7.21560586339003
C         8.45119441382384    6.53896006743299   10.19953705197535
H         9.37525634048678    6.45829651594248   10.75328226335986
C         8.44549202563052    6.30609368836513    8.83955215609120
H         9.36770198326173    6.04549977239435    8.34415994286190

