42
CSD_code = LUKRIT | q = 0 | S = 0 | Stoichiometry = C14H20Cl2N2O3Zn | MND = 5
C         0.93938806519062   11.30829089974117    3.32561522781456
C         1.50574072074537   11.21218587720832    2.01554725741537
C         1.36819911584614    9.96271686663316    1.34774451201308
H         1.79760213603970    9.88249325097369    0.36069984736587
C         0.73303334733613    8.89530978415376    1.91529019975615
H         0.64804505391766    7.95858035002374    1.38592009736535
C         0.18639263528674    9.01434789741145    3.19899025477489
C         0.28730596426320   10.19139716831548    3.88740826355276
H        -0.13420743026316   10.27605612159617    4.87841274844851
C         1.00058278908935   12.48974783866560    4.10801372173007
H         0.50716841837094   12.43771446544323    5.08573122494178
C         1.49313054958422   14.72983577426799    4.64761603600861
H         1.65478743896092   14.43611540894111    5.69256650046986
H         0.49241030769585   15.17584519700473    4.57963752116122
C         2.55585928939149   15.74770269098846    4.24290843922189
H         2.39633419965448   16.68323231500570    4.79868545484682
H         3.53778076980522   15.34751422133555    4.50426608630905
C         3.71242223523418   16.85339906273775    2.48358771027358
H         4.62819763834307   16.31169867014917    2.72204620527673
H         3.66065745343937   17.77025114657519    3.08939283158164
C         3.72646636613857   17.23272948278582    1.00551497450247
H         4.52629267054815   17.94878655756930    0.81113287576363
H         3.88450160844971   16.33124358759180    0.40134223215019
C         1.43378477014946   17.02193394226061    0.88570539493883
H         1.52729649168814   16.08515791471631    0.31631790738544
H         0.54027423799532   17.55936463293284    0.56231029131966
C         1.34582397882706   16.68774410620266    2.37357157530363
H         1.22652398803663   17.62193923415899    2.94383023144719
H         0.47958848803959   16.04829575079962    2.54168876048389
C         2.84847225704217   13.56921806913588   -1.19160730652820
H         2.67990937787255   12.50579950558634   -1.01999153249714
H         3.50763082080426   13.71237993168883   -2.05198352067215
H         1.89230804915178   14.05106746345846   -1.38750639910627
Cl       -0.61988026272777    7.65450843289774    3.90820592216588
Cl        4.90326056089296   13.63050219484838    2.56507662273239
N         1.56543794385501   13.59391056262023    3.76585957217027
N         2.56376317995935   15.99426118977398    2.79921985815561
O         2.11161047892339   12.16625371075824    1.41360024429736
O         2.52519373255577   17.86371440320420    0.61888870488852
O         3.40436225783570   14.19038553279547   -0.04207156855643
Zn        2.76503132840823   13.82339814531216    2.14808665988235
H         4.27151697995466   13.79177064548196    0.12882836185167

