45
CSD_code = LUKTIU | q = 0 | S = 0 | Stoichiometry = C12H18Cl2N6O6Zn | MND = 4
Zn        6.20145339626168    5.31210715455337    4.52474237818445
Cl        8.16886300599253    4.52508435534510    3.95434290139287
Cl        4.25889183570196    4.39070697209595    4.96515247909879
N         5.60139793702682    8.40659087671046    1.58680006075161
O         2.36725713348003    9.16704773110224    2.78396735843618
C         6.36526126424575    7.46769357676526    2.17600258349348
N         3.28361324113514    9.23696064289081    1.99589457673155
O         3.31881286986985    9.99259322009673    1.03897363614101
C         7.75806430107377    7.16852399273757    1.79433158482131
H         8.12495447246060    6.34012674759420    2.39984980438418
H         8.39717667932627    8.03567751476682    1.96036983657918
H         7.82126047204935    6.89185521115301    0.74368826565866
N         5.70308695760538    6.87384063149880    3.16420279322315
C         4.47840924668402    7.42516859342709    3.21771572619128
H         3.73425561739412    7.09624297740734    3.91610792248881
C         4.38341455295638    8.39068780766249    2.23819203608141
C         5.97119577042889    9.19102557677587    0.43303065262855
H         7.05105535013821    9.34362339313536    0.43997014810360
H         5.46452107588973   10.15687204773750    0.48871161553208
C         5.55353569563192    8.46755518239691   -0.86526400068590
H         5.82281870296737    9.11125385288256   -1.71378308570930
H         6.09125148531215    7.52031226531591   -0.95896242999634
O         4.20011254539259    8.13229652081620   -0.87691601966754
H         3.66813217972212    8.93639535967369   -0.78558884466166
N         6.75113227623351    7.45942694426073    8.21217656791758
O         9.19062569392937    7.92692166529137    9.59652855789297
C         5.95809447470331    6.91475161447897    7.26632359094102
N         9.21471336248192    7.84248608974964    8.38580233484136
O        10.17733726636060    8.06170271594932    7.68455919130247
C         4.49488767713087    6.76868233464502    7.37326118729139
H         4.17547328602318    5.94047447704548    6.73816861861834
H         3.98922357850446    7.66878021884371    7.02456803765442
H         4.19163471402871    6.57950229297621    8.39973523256416
N         6.67657638465369    6.52940352999549    6.21671467024899
C         7.96262823445294    6.84233980200479    6.46938192850795
H         8.75157489584566    6.60735124256486    5.78218252411295
C         8.03878435596410    7.42837577151474    7.71166649351250
C         6.31394960549757    8.09772800159919    9.43275484825558
H         7.16571915690382    8.15980855350162   10.11310022580464
H         5.52675075183994    7.49698612863472    9.89043416080897
C         5.78415622799122    9.51797944823695    9.15612820498497
H         4.93641532198773    9.47519013473846    8.45965471779739
H         5.44145459311593    9.94524310345391   10.10034307381801
O         6.77930062337177   10.38431307510144    8.68639964189595
H         7.03527173026715   10.14921065081998    7.78758421180677

