73
CSD_code = LUKTOC | q = 0 | S = 0 | Stoichiometry = C32H32N2NiO2S4 | MND = 4
S        -1.41647421049719   -0.04414032349471    1.70183631061389
S         0.88706379122899    1.57034721903216    1.28670828159596
Ni        0.00008855103028    0.00029679637215   -0.00013849002574
N        -0.74675689373376    1.93436708169046    3.37538626283308
C        -0.46576157700479    1.25085400627450    2.27529003851539
C        -1.90188272614109    1.62892712961965    4.20041638884351
H        -1.56758030656488    1.55604148682645    5.23986485851397
H        -2.29533991305502    0.65995257031466    3.88236160570775
C        -2.95650455786550    2.69459496874553    4.05787163068400
C        -3.29975535146996    3.51472363388967    5.11947853705319
H        -2.82453306623881    3.37434195881358    6.08029780919790
C        -4.25359153413953    4.50983441685088    4.97824569310039
H        -4.49844655225165    5.12460157824809    5.83001109338181
C        -4.87617782514271    4.70207680058177    3.75031717481070
C        -4.52737843660758    3.88039857145433    2.67523676763503
H        -5.01924363429411    4.03991124221223    1.72914370368623
C        -3.58261146620912    2.89163804968165    2.82968521859643
H        -3.32589258116020    2.25844361399125    1.99402096251692
C         0.06738554296721    3.04910531720785    3.82148371601233
H        -0.59330257525698    3.90158387113134    4.00790517096231
H         0.76206836379810    3.30384208586053    3.01652191511492
C         0.82826323929120    2.68568516298120    5.07062322983796
C         0.58602739546731    3.33849979026582    6.27092782311571
H        -0.13980433362493    4.13890211481769    6.30728809851900
C         1.27454817894968    2.97567668406802    7.41603611009561
H         1.08180428477840    3.49155418125202    8.34525301333858
C         2.20463209005407    1.95178688793547    7.37056870164485
H         2.73942389607396    1.66694847537802    8.26437508188059
C         2.44917998047459    1.29471000660509    6.17576369662722
H         3.17599189177295    0.49724409953372    6.13595558096626
C         1.76519737133077    1.65990723915955    5.03090619685703
H         1.95729788994952    1.15260324075818    4.09722973537625
C        -6.23416363973031    6.49073280985067    4.53842222643473
H        -5.40565740417092    7.10037527766734    4.91360286384829
H        -6.67272908865296    5.92350702355476    5.36582858970411
H        -6.99262511626461    7.14262732694365    4.10800313020229
O        -5.82209013222107    5.64439515504572    3.49308783559007
S         1.41656376575811    0.04428903424351   -1.70213186710139
S        -0.88704494332792   -1.57002114705863   -1.28657120225469
N         0.74662306505810   -1.93426017588376   -3.37541260922814
C         0.46562796375558   -1.25061026921901   -2.27539966829610
C         1.90177176056146   -1.62892724868694   -4.20044394383477
H         1.56748242664578   -1.55625325991996   -5.23992766784056
H         2.29512352233874   -0.65985257185345   -3.88257648040302
C         2.95647644589487   -2.69452132834489   -4.05776978196084
C         3.29978383988654   -3.51458474595993   -5.11943050428323
H         2.82461388096127   -3.37416025512612   -6.08026979424280
C         4.25367606971322   -4.50963570945321   -4.97825598787790
H         4.49848231274519   -5.12434388518660   -5.83007937283274
C         4.87627488445672   -4.70195357285944   -3.75033238873533
C         4.52742672565051   -3.88037133433245   -2.67522539331170
H         5.01923075782314   -4.03990789145036   -1.72910040159244
C         3.58261178944416   -2.89162399533976   -2.82961911182883
H         3.32587595640225   -2.25847936233743   -1.99392066430178
C        -0.06743338567477   -3.04914845741256   -3.82131059979225
H         0.59332063795864   -3.90158402580641   -4.00768011250003
H        -0.76205194306682   -3.30386267412451   -3.01628030572612
C        -0.82836713014192   -2.68593051053440   -5.07045620026301
C        -0.58599379174288   -3.33871335173703   -6.27075097787448
H         0.13996074172286   -4.13900220576211   -6.30709157073708
C        -1.27450129775880   -2.97596184402142   -7.41589569567751
H        -1.08165427442234   -3.49181305903127   -8.34510705621726
C        -2.20471736907920   -1.95219700767086   -7.37045804282395
H        -2.73948556313692   -1.66740954970082   -8.26429429192480
C        -2.44939145738535   -1.29515026602709   -6.17565744339622
H        -3.17628239836228   -0.49775498196804   -6.13587606871967
C        -1.76541659531798   -1.66026310326005   -5.03077153259796
H        -1.95760774251240   -1.15298329165560   -4.09709965436845
C         6.23438008021241   -6.49037318174788   -4.53876364773348
H         5.40594037870231   -7.10006715565816   -4.91401185220536
H         6.67282265739784   -5.92293114638580   -5.36608991473507
H         6.99296777107613   -7.14224659620557   -4.10851544726424
O         5.82224091289424   -5.64428742364204   -3.49323930890343

