169
CSD_code = LUKVAP | q = 0 | S = 0 | Stoichiometry = C58H86B2N22Ni | MND = 6
B        -1.54859869570620   -1.97223539174946   13.89235856604701
H        -0.67949658947244   -1.36389106918925   14.41589182016709
C        -1.40227399089124   -1.74604347484579   11.32227826087433
H        -0.60050152759338   -2.44987677361132   11.21876962953547
C        -2.10177395742022   -1.04211433662442   10.33025018565389
C        -1.92380300282596   -1.18366013651898    8.97749212295480
C        -3.03881309364430   -0.25806339443439   11.07330961748225
C        -4.11536362079820    0.65946032472056   10.57445533236791
C        -3.67861630349272    1.37524392889195    9.29347919563567
H        -2.76986138577687    1.94748578063914    9.46866986650772
H        -4.45787728024174    2.06066953554222    8.96771817537286
H        -3.48817581465325    0.66593032898239    8.49029166492409
C        -5.36646035881271   -0.19076795720419   10.30430693810735
H        -5.15618374180536   -0.97789145592531    9.58086636527376
H        -6.16888120530866    0.43217829938494    9.91580398707236
H        -5.70359023885033   -0.65557262323673   11.22726628978005
C        -4.43190245086904    1.69192451610988   11.65870391030198
H        -4.68701789621445    1.18713384169008   12.58518502220059
H        -5.26504132332816    2.31875622718059   11.34955770963389
H        -3.56701698515775    2.32356558884613   11.84471079219650
C        -3.99913541511356   -2.49479415849641   14.34129125075361
H        -4.08087064184395   -3.10917244102009   13.46651135982699
C        -4.95346842581275   -2.14458527847479   15.28763826493565
C        -6.29971839817365   -2.50423289861813   15.29117908078195
C        -4.24191919364603   -1.33309252554730   16.21653403791782
C        -4.77605732094922   -0.67112607707678   17.45008044756268
C        -5.88218774555777    0.31229461490337   17.04607193245974
H        -5.48991280394080    1.06305429906053   16.36276850262372
H        -6.27434596758067    0.81573589019551   17.92702715567116
H        -6.70046001127436   -0.21062554193728   16.55528117654796
C        -5.35440136816480   -1.73967535981784   18.38638549074533
H        -6.17211821419061   -2.27186068686203   17.90483666445003
H        -5.73334327138946   -1.27501240805817   19.29404520447341
H        -4.58615033968831   -2.45989771268446   18.66112217225445
C        -3.64592436300795    0.08040747767934   18.15522841901816
H        -2.85530875543955   -0.60904564974645   18.43804902968042
H        -4.02285513075493    0.57324388654637   19.04872341071436
H        -3.21987135388998    0.82640104492154   17.49023284579294
C        -0.15629965203805   -4.12395726816576   14.22495404513761
H         0.52748499015676   -3.67136944890518   14.91407019890039
C        -0.21234781299394   -5.42842498288276   13.74844833053622
C         0.66308172272613   -6.47853546636153   14.02464477246393
C        -1.33392008227160   -5.42840937129864   12.87530530778852
C        -1.86849061212915   -6.57188493494493   12.06458989588744
C        -3.15958427043810   -6.13708190598330   11.36566185921201
H        -3.93152708983842   -5.93975301073931   12.10423921945354
H        -3.51022582446081   -6.92090405181579   10.69617615673936
H        -2.99525243291077   -5.22126845527624   10.80392093771298
C        -0.80968708604311   -6.97326471775668   11.02741399137481
H        -0.54191562805370   -6.12116289588876   10.40340033722475
H        -1.18543304329140   -7.77159643389882   10.39001634249681
H         0.08873103823351   -7.32841831952614   11.52690407847875
C        -2.16086751959380   -7.76394804431876   12.98202551246501
H        -1.25186232724935   -8.10614396633754   13.47053893622724
H        -2.57334550396169   -8.58845706225275   12.40393137566547
H        -2.88036726412020   -7.48449482690999   13.74873404943166
C         1.15647927416652   -2.31270913759884    5.11534018932151
H         1.36767279597023   -1.62930210994038    5.94195665411487
H         2.06404501457263   -2.40116208074940    4.51763456894625
C         0.06043343734712   -1.71921358026341    4.22953884954925
H         0.45513740303347   -0.82138663938078    3.73453280434676
H        -0.21513982015226   -2.43521332734235    3.45041313989355
C        -2.18415584862478   -0.75195307774640    4.18092237475798
H        -2.39978808831245   -1.40642471783966    3.33067639538058
H        -1.85810183964584    0.22008451158812    3.79141168433104
C        -3.43395038522498   -0.58770418493403    5.04069437369250
H        -3.21944681454606    0.08428401383405    5.87711226578655
H        -4.25227764249085   -0.15371723320059    4.45131833363802
C        -4.87939307742668   -1.84261529479619    6.56668287681252
H        -5.78112441218158   -1.41155720174063    6.10974706311140
H        -4.56735176298520   -1.18567282590413    7.38234744955860
N        -1.90571432721238   -1.39971403700439   12.49683286135815
N        -2.88300346445606   -0.50796631282389   12.35071976077556
N        -1.77626716034974   -1.36424081707018    7.84027723774150
N        -2.84199919542441   -1.92822608541875   14.69797382300251
N        -2.99092418331357   -1.23425438777458   15.82381139259944
N        -7.41052857220109   -2.80255834608605   15.27033593523775
N        -1.15441122983903   -3.43606995543552   13.66294918759090
N        -1.86694731692510   -4.22400285389997   12.84469762484368
N         1.39073819151136   -7.34826041726505   14.21403999372881
N        -1.13865685064084   -1.38205306247862    4.99365833780625
H        -0.86996910200884   -0.71387704604010    5.72314080589443
N        -3.79536103664180   -1.89890536665828    5.58917235679814
H        -4.10404741739865   -2.48906989056276    4.81152444812381
Ni       -2.03185783663599   -2.76894995974943    6.11934023404923
B        -2.51659301344773   -3.56818532316023   -1.65398405095197
H        -3.38620899964412   -4.17606525706466   -2.17720572848702
C        -2.66252395885604   -3.79300240578229    0.91633772278534
H        -3.46354237531132   -3.08830107359937    1.01978684249196
C        -1.96313451744851   -4.49693482727729    1.90846673970382
C        -2.13988694547530   -4.35441076630515    3.26119933800621
C        -1.02724558666804   -5.28235286087661    1.16545282042319
C         0.04868222504119   -6.20049440158602    1.66447642718629
C        -0.38836516762604   -6.91532207752350    2.94588985917185
H        -1.29776222349026   -7.48670970636120    2.77124216254276
H         0.39031367542208   -7.60140845045088    3.27164854800096
H        -0.57779613860859   -6.20548993025016    3.74886083640830
C         1.30049949519288   -5.35113368543779    1.93401366828574
H         1.09098181507838   -4.56352990065134    2.65716209289431
H         2.10248777238003   -5.97455632938185    2.32264259901486
H         1.63784161776580   -4.88699820639275    1.01079433093324
C         0.36411683428036   -7.23367866946779    0.58060648828515
H         0.61940898932540   -6.72949486722226   -0.34615731548502
H         1.19682869223373   -7.86103402670739    0.88983177914161
H        -0.50133095627608   -7.86469851587231    0.39510001368611
C        -0.06538328890328   -3.04877440984917   -2.10251744766565
H         0.01687205409200   -2.43420037165480   -1.22792277714311
C         0.88891040224611   -3.40081240653810   -3.04822730120662
C         2.23581644839645   -3.04336517647334   -3.05107681304722
C         0.17659632729130   -4.21160275448097   -3.97716338733956
C         0.71049979397467   -4.87508185562115   -5.21000414026854
C         1.81393167253679   -5.86090381672328   -4.80444370307523
H         1.41915100523020   -6.61053444627901   -4.12134787316212
H         2.20594511932981   -6.36552688697920   -5.68478846096136
H         2.63282886172875   -5.33968633480514   -4.31288311821094
C         1.29233051432689   -3.80819252589383   -6.14603171695544
H         2.11084366077454   -3.27781945325287   -5.66384247103145
H         1.67106025143236   -4.27403520500545   -7.05317717014004
H         0.52608345403687   -3.08621627348783   -6.42175163176037
C        -0.42057513062929   -5.62424805320261   -5.91615761768608
H        -1.20925830276362   -4.93306864594324   -6.20016302468591
H        -0.04376442928357   -6.11829454965380   -6.80903836766784
H        -0.84912355307396   -6.36899504655391   -5.25137160888411
C        -3.90704561499392   -1.41556432678406   -1.98791738600988
H        -4.59073843200978   -1.86787738380700   -2.67730621929290
C        -3.85044039648080   -0.11102651628881   -1.51167329455268
C        -4.72513869387090    0.93946532636522   -1.78849814997991
C        -2.72930808972800   -0.11152553050345   -0.63797913310279
C        -2.19455783937760    1.03180985840160    0.17282458886437
C        -0.90378654749156    0.59662899510827    0.87210238897719
H        -0.13174400643361    0.39896339052191    0.13372506021797
H        -0.55303862599198    1.38040376270869    1.54159110032377
H        -1.06856530432113   -0.31906657904478    1.43390734558618
C        -3.25347951448818    1.43354634399086    1.20974522218416
H        -3.52153750875273    0.58159757979855    1.83384595384351
H        -2.87769216903114    2.23190275169079    1.84709268024115
H        -4.15172908295396    1.78880934395746    0.71003493988021
C        -1.90159315793344    2.22375957176634   -0.74457229980516
H        -2.81039747369800    2.56631641235922   -1.23320493328325
H        -1.48886676765869    3.04810530360808   -0.16642679204922
H        -1.18210801805040    1.94402231475777   -1.51118989682589
C        -5.22023603717885   -3.22550682059029    7.12293624057960
H        -5.43122690281966   -3.90892709339517    6.29627920030217
H        -6.12790389600681   -3.13718133568911    7.72050744607740
C        -4.12425027215188   -3.81890453871719    8.00888958904512
H        -4.51892354993301   -4.71679434802818    8.50380604939310
H        -3.84886206122671   -3.10291287431044    8.78808905232273
C        -1.87954072011361   -4.78595865166049    8.05770792869275
H        -1.66392391505049   -4.13146335075038    8.90794059906335
H        -2.20559535200784   -5.75799436820320    8.44722380569977
C        -0.62974373509954   -4.95023089871635    7.19794329313990
H        -0.84423345085659   -5.62227814967824    6.36156902184729
H         0.18859152382436   -5.38416322728331    7.78734565634559
C         0.81551639485843   -3.69554218924730    5.67164910579330
H         1.71725988555153   -4.12674422929673    6.12842381301961
H         0.50320560543618   -4.35242914355583    4.85603827583456
N        -2.15985326558290   -4.14041286786953   -0.25823283376393
N        -1.18334281678100   -5.03300795980048   -0.11202081970445
N        -2.28859431676033   -4.17319903920930    4.39824966300405
N        -1.22318311780538   -3.61378138545960   -2.45952400650724
N        -1.07473312367499   -4.30841863609376   -3.58501855901688
N         3.34702036978167   -2.74690609541091   -3.02926225366092
N        -2.90962701354914   -2.10393108824299   -1.42527041514401
N        -2.19699863053250   -1.31624233940128   -0.60686293471482
N        -5.45238042449667    1.80951740196240   -1.97847611411989
N        -2.92502744122992   -4.15591127325377    7.24492048861077
H        -3.19355782962888   -4.82407323951127    6.51536627366398
N        -0.26833434512422   -3.63907472136483    6.64935676986923
H         0.04054743780951   -3.04890030730946    7.42691767757099

