94
CSD_code = LUKYIZ | q = 1 | S = 0 | Stoichiometry = C46H45OPRh(1+) | MND = 8
Rh        1.07175791656234    0.74701426456697    3.92017791234774
P         3.03508092555563    0.12861594255180    4.90024344836309
O         2.54093156939170    1.92978097983920    2.70596855957959
C        -0.84972004623667    1.72778649744871    3.42656280346704
C        -0.31761327312494    2.47063324076752    4.56777421915232
C        -0.19236519356057    1.58752303989979    5.64110953363583
C        -0.62758592607404    0.26872929780553    5.18462125752595
C        -1.13929669923089    0.40681851770835    3.84781336596167
C        -1.35139022625954    2.36438859245988    2.17143313743076
C        -0.09888761866595    3.94772710953282    4.56603493030952
C         0.11192614339071    1.90514103679985    7.06955279025659
C        -0.94316944976018   -0.83964445405081    6.13878607103177
C        -1.93642582156899   -0.59989163271577    3.08349629123268
C         3.57992390569101    1.15440451449229    6.30961281978478
C         3.26865013277958    2.50985774283237    6.22416363518722
C         3.70103188927492    3.38898715566551    7.19751593260434
C         4.44946961588946    2.91919011565351    8.26591308823045
C         4.77107620530430    1.57482926148812    8.34830322012004
C         4.34513387855067    0.69000916918978    7.37186543394385
C         3.47235741531012   -1.56786761918723    5.36169524539420
C         2.91312025047404   -2.06794844506622    6.53667896894385
C         3.15276032963898   -3.37192368865908    6.92395539110392
C         3.94429597177615   -4.19078862104078    6.13408976759445
C         4.48469244694448   -3.70481392479457    4.95526932195519
C         4.24624657793095   -2.40039946468023    4.56152050260294
C         4.28871955612900    0.66700232057064    3.69341495639995
C         3.84642684598683    1.49117154217837    2.65630976137808
C         4.73225653112907    1.90664988878583    1.67105674155823
C         6.06409764041696    1.54005746792308    1.75517397965910
C         6.52322864293390    0.78182971543708    2.82043704446639
C         5.63821055590522    0.34951391342125    3.79083647310387
C         1.94612880207550    2.26499914063687    1.47043551800765
C         1.90772078537074    3.68831470233261    1.16878161142892
C         2.57055797508663    4.60048411194367    1.99947521333894
C         2.52201331877899    5.95416698954481    1.74344006407861
C         1.81468055764652    6.45486652676882    0.65411225009379
C         1.15492897853662    5.55004087704554   -0.17094393100295
C         1.19494344585236    4.19352573699410    0.07737868175542
C         1.77225169296319    7.92480481924836    0.39087481670629
C         1.46791492676237    1.24415691036227    0.72688525448138
C         1.49460903354696   -0.12971649066448    1.15371445387106
C         1.49560611229064   -0.60851474837573    2.41733554913891
C         1.67818091012996   -2.02984480562698    2.66846505653328
C         2.48943042172752   -2.80027900230287    1.82622125104161
C         2.66256020195560   -4.14999724662971    2.04962483120181
C         2.04145534314302   -4.79031762145619    3.11670526947481
C         1.24889534606516   -4.02592261504898    3.96632818520313
C         1.08207798914031   -2.67453174895803    3.75480305925651
C         2.21215834789488   -6.25778322340282    3.34138882912162
H        -0.79356927538891    3.26490133968235    1.92649284409790
H        -1.29487505881251    1.67748706774665    1.32978925156280
H        -2.39835223042092    2.64007165229302    2.31084322835122
H         0.41490221555495    4.27293782267159    5.46717725079801
H         0.47748749407577    4.26761940197051    3.69763675292806
H        -1.06571269934628    4.45124125579586    4.52273748752918
H         0.73358786918131    1.13638632170466    7.52450766429636
H         0.61988086168433    2.85998760103290    7.17138797947729
H        -0.82397502879556    1.95537586052825    7.62879639746156
H        -1.68674894271490   -0.47716896855364    6.85088380535551
H        -1.36069148933473   -1.70419006735752    5.62988868409804
H        -0.06841803096795   -1.15134453588158    6.70704777551778
H        -2.99614979253691   -0.44131025752647    3.29069344811809
H        -1.78155186992745   -0.49218237863313    2.01280001683319
H        -1.68135316075554   -1.61820261786124    3.36402094994059
H         2.68331859067264    2.86481415495528    5.38248478761697
H         3.45921408174637    4.43930062189869    7.12753426735711
H         4.78520604320247    3.60216080455062    9.03082427705626
H         5.36163829552309    1.21123194730699    9.17540847082910
H         4.60889617676613   -0.35521883363930    7.43976003293110
H         2.29714500473063   -1.42006041233111    7.14759523621154
H         2.72415129528217   -3.75120852671962    7.83947452099066
H         4.13592515008108   -5.20892892622225    6.43607261803940
H         5.09310744777165   -4.34560858587364    4.33583166023471
H         4.65345726625551   -2.03387436159861    3.63123564155057
H         4.38664289632520    2.52374994784805    0.85580353370674
H         6.74980597257358    1.86656854429988    0.98919750136629
H         7.56820912179132    0.52469995930605    2.89116623838708
H         5.98522323711503   -0.24231908271790    4.62523187591890
H         3.13572907802448    4.24495854707812    2.84985109957260
H         3.04328296722072    6.63820134933618    2.39709044246617
H         0.59857311847327    5.91481609959284   -1.02150690447366
H         0.66436303734918    3.52277909657248   -0.57955478277458
H         2.78088514648960    8.31456185917367    0.26052427634003
H         1.19486483829536    8.14686999258694   -0.50221201062375
H         1.32464435223343    8.44840419571625    1.23497401610159
H         1.07076875582493    1.44524586026453   -0.25561172602763
H         1.45850025554674   -0.84586705209523    0.33846525176307
H         3.00097163278702   -2.32925265622329    0.99959066256809
H         3.29474528397718   -4.72006818229983    1.38431307690901
H         0.76552922392641   -4.49875930919593    4.80913270580009
H         0.48114075680504   -2.09574549188020    4.43768178046409
H         1.40271340468748   -6.80329117615473    2.85472161101134
H         3.15137604608801   -6.61118891123265    2.92308730790607
H         2.18165577943897   -6.49351675916757    4.40271642639051

