28
CSD_code = LUKYOF | q = 0 | S = 0 | Stoichiometry = C6H13ClN2O5Pt | MND = 6
Pt        2.23484087393934    8.55441969440106    1.44243732635695
Cl        1.36106522127571    7.69535442157702   -0.48052594904405
O         1.70187290514330   10.44332337583460    1.02932102153813
H         0.76731477434504   10.43834056660885    0.80527889636295
O         0.53246863504821    8.06811272801625    2.40129757949701
O         2.78032210913945    6.68018507729178    2.07938146712270
O        -0.39858529404941    6.42701912531495    3.55442531457286
O         1.99046455755285    4.97886787154817    3.25512182745817
N         4.08969081413575    9.04748588036636    0.55475055936738
N         3.11463366217211    9.39957835574065    3.24869599077512
H         2.72198464074501   10.34197359634962    3.27628344611358
H         2.88385737219791    8.91168141399603    4.11124954955535
C         0.52369439726685    6.87735407715188    2.92136559956780
C         1.85721033856450    6.06340959523213    2.74299980378568
C         4.76381937054074    9.90997300172213    1.54231431809461
H         4.32518808311424   10.90815549993501    1.45531115885694
H         5.83579006113472    9.96993345220567    1.31989591361847
C         4.55066821904441    9.41608691236359    2.97500860526709
H         4.93281655777275    8.39915277355296    3.09614202861011
H         5.08953117623450   10.07368168803276    3.66867477101629
C         4.84554672893923    7.81563309234321    0.31088543225262
H         5.83388641705629    8.05097453075675   -0.09625298726893
H         4.30111473149428    7.20150251168942   -0.40504078367667
H         4.95698590190472    7.23569146262516    1.22418542780626
C         3.94171069729178    9.77125126479045   -0.71233250317578
H         4.91793351814517   10.09509523619939   -1.08299114696341
H         3.29503292428589   10.63466534663190   -0.55970372107414
H         3.47054060556486    9.11819744772243   -1.44437894639325

