65
CSD_code = LUKYAR | q = 0 | S = 0 | Stoichiometry = C29H31ClO2PRh | MND = 8
Rh        0.66288111877364    1.51019687193645   -0.54676955014013
Cl        2.72561978287972    1.41796625240269    0.48342809401255
P         1.21690503319204   -0.66806688357584   -0.83919496923332
O         1.72720071496051    1.72010721689730   -2.33558210002846
O        -0.00093044394502   -1.68215368327381    1.43746319264020
C        -1.22269565673484    2.43249681541466   -1.17068928690705
C        -0.33223203961453    3.47710036604292   -0.71174611568585
C        -0.05322068417828    3.24923843282038    0.65610833322653
C        -0.71761270983239    2.03097869522879    1.04629693581423
C        -1.49757199962488    1.57182070791999   -0.06865691325712
C        -1.88753084962196    2.45375154935281   -2.51138831058155
C         0.08522004251266    4.63633621553066   -1.55848635799422
C         0.72490067444533    4.11325062731214    1.59521692613904
C        -0.81820940640250    1.54568499133040    2.45838082689572
C        -2.51174877058016    0.47175347258535   -0.00985647777987
C         2.41847943611314    0.73260756656211   -2.80460241847543
C         3.26483105965656    0.89861611558799   -3.91988300449306
C         3.93984012852149   -0.17559835315523   -4.44995155818834
C         3.80937510642015   -1.45314267052699   -3.91289677809152
C         2.99840532340678   -1.64549046178969   -2.81332027371521
C         2.33369884056966   -0.56373154806216   -2.25071024777840
C        -0.00026055765929   -1.86630359638917   -1.48944008512790
C        -0.90167497242401   -1.36387250583417   -2.42203713199393
C        -1.82244121411835   -2.19655379077251   -3.02760672199307
C        -1.84571587236012   -3.54505639124576   -2.70705726482871
C        -0.93720156143563   -4.05415103198463   -1.79438965318810
C        -0.01222075021488   -3.22130586074088   -1.18837146162846
C         2.09422475266602   -1.59685256596216    0.44294035909041
C         3.45824098378428   -1.83505375414253    0.43152357109328
C         4.04393416355653   -2.53853011927647    1.47059428582721
C         3.26719047317455   -2.98807131304112    2.52267647048111
C         1.90404913800001   -2.73357653029459    2.56124263577495
C         1.31689800676917   -2.02320138317217    1.52590443064272
C        -0.88483590784952   -2.23486117389386    2.38371366387925
H        -2.56356099358906    3.30936663300181   -2.56855969986180
H        -1.14720823787102    2.55743298003074   -3.30333819526380
H        -2.46388344226182    1.54878180452082   -2.68811841815055
H         0.60470948070832    4.28160274667707   -2.44872200091751
H        -0.79418836960074    5.20059970020523   -1.87510123770802
H         0.75428374051958    5.29925592788073   -1.01563894059560
H         1.59742415315881    3.57970056180037    1.97283628818316
H         1.06721624155934    5.01947543097926    1.10277347473456
H         0.09728869971286    4.38689323291289    2.44429041564699
H        -1.46412610113670    2.21529311867381    3.03173642246714
H        -1.23719069769463    0.54485656209542    2.49110289160533
H         0.16291485045605    1.53248976553688    2.92987294717574
H        -3.27222759666786    0.72272642151756    0.73117707693256
H        -2.99894338014234    0.33501225503049   -0.97148155312823
H        -2.04975184685549   -0.47185606410508    0.27236540212331
H         3.35947717432999    1.88493362099655   -4.34832729339318
H         4.58124760724121   -0.02394672601529   -5.30691096182276
H         4.33982860339822   -2.28430655758492   -4.35234904798592
H         2.87561368667236   -2.63013428900434   -2.38045182825541
H        -0.85446042289366   -0.30965837922274   -2.66756122612634
H        -2.52084046622907   -1.80176500555154   -3.75179417759340
H        -2.56616139516764   -4.20014469991342   -3.17457264990310
H        -0.94587585367271   -5.10835680067079   -1.55627174343999
H         0.70192176036389   -3.62758860712016   -0.48590461286366
H         4.05370396315015   -1.46108916548087   -0.38761369054084
H         5.10591332100906   -2.72949918492732    1.46063808014239
H         3.72121261378205   -3.53667272650496    3.33466426437799
H         1.32441089512766   -3.07876327589133    3.40341086656977
H        -1.88892452118200   -1.94159478215689    2.07956568290729
H        -0.82326278580414   -3.32792922493626    2.39210427074245
H        -0.68505206326932   -1.85294755251240    3.39032614955445

