55
CSD_code = LULCAW | q = 0 | S = 0 | Stoichiometry = C22H26N6Zr | MND = 6
Zr       -2.62154356788691   -0.59182066422590   -2.51524128042590
N        -3.86627807435782    0.00952298439914   -4.07566321415878
N        -1.35140730546893   -1.99478415220441   -3.35177262648603
N        -1.31201059269107    0.87502757569253   -3.83253373200305
N        -3.86532091544519   -2.01564451901816   -1.67518045517174
N        -1.38883119799823    0.03111785641103   -0.95424803732733
N        -3.95711871343671    0.85507086136168   -1.20121266188185
C        -5.07043774171847   -0.40223353592025   -4.56526741807886
H        -5.54469429204110   -1.29194588234131   -4.17691685205306
C        -5.50163854549463    0.44929100903526   -5.55571149615971
H        -6.40899342925755    0.37351621891043   -6.12319084911452
C        -4.51283098256618    1.44419927491655   -5.69162749987215
H        -4.52104475987011    2.27169521734085   -6.37622368589025
C        -3.53253420780080    1.14533747659537   -4.76990099072068
C        -0.71178865057856   -3.04809007049532   -2.76937029934600
H        -1.24101928032814   -3.70822864123501   -2.09565833918937
C         0.59343597171248   -3.11368364463632   -3.19981659290036
H         1.32743731284679   -3.84832227761932   -2.92789816112982
C         0.78700543099709   -2.02368238693640   -4.07355130210076
H         1.69230985055664   -1.77134188235051   -4.59404600676148
C        -0.41824126747524   -1.35976931550503   -4.13572388710309
C        -2.23940771398966    1.84197699109312   -4.44009698978073
H        -2.40434674948724    2.65863777014039   -3.71777858979909
H        -1.80610373690863    2.29483984984410   -5.34933417848253
C        -0.85112147204440   -0.11232902837000   -4.84412525210666
H        -0.03197365679489    0.30489943464943   -5.44921516342735
H        -1.69825848652383   -0.33980431436821   -5.50967299423084
C        -0.14331348750144    1.55145637771470   -3.26889499144085
H         0.37283578000333    2.15118284321838   -4.03333098158982
H         0.55238331426677    0.80377851906639   -2.88164552719742
H        -0.43699942995191    2.20838896455278   -2.44738420208690
C        -4.48431893826769   -3.08310318970683   -2.25385424025671
H        -3.94221150412642   -3.73651528790910   -2.92398668449829
C        -5.78818766404952   -3.17220466071573   -1.82355132061537
H        -6.50728298029372   -3.92250493145704   -2.09222937443183
C        -6.00290680170779   -2.08300628632251   -0.95375946337297
H        -6.91302310648772   -1.84693648980244   -0.43405817643860
C        -4.81085298442458   -1.39536973339261   -0.89414993540311
C        -0.17752381954848   -0.35871517957418   -0.46422824337223
H         0.31055280239068   -1.24243871916217   -0.84892402096889
C         0.24060841752696    0.50417254367238    0.52190238746970
H         1.14991803371617    0.44483639064749    1.08821476932042
C        -0.76451084877871    1.48301311075205    0.65494099505358
H        -0.76824533800082    2.31317382692509    1.33630155984584
C        -1.74057691574785    1.16409360728777   -0.26449797653509
C        -4.40213290719693   -0.13819865397166   -0.18830206834615
H        -3.55255636910385   -0.34843992410494    0.47980295393187
H        -5.23031295697895    0.26519000647506    0.41390499893379
C        -3.04560673697789    1.83798469626892   -0.59513963919830
H        -3.48619443189593    2.28467847476912    0.31365188129491
H        -2.89478402586681    2.65642445014375   -1.31849220293257
C        -5.13652333179317    1.51210490475085   -1.76559956828072
H        -5.66004703763896    2.10724071443246   -1.00259344016858
H        -5.82189029280750    0.75290648061642   -2.14875532608561
H        -4.85383966471521    2.17005493965829   -2.59016360691449

