59
CSD_code = LULDIF | q = 0 | S = 0 | Stoichiometry = C26H24Br2N4O2Os | MND = 6
Os       -0.64243593111951    6.47169043677865   11.91245790947767
Br       -2.17237636030266    4.59507848222055   11.33168176355847
Br        1.17899344750746    4.93011355690763   12.62642600612902
O        -5.31074469900438   10.44035456873123   14.76309344751778
O         3.27640986102107   10.91277624007975    8.69385248257072
N        -0.12578659360011    6.54061807413641    9.94685913724181
N        -1.97835110607622    7.78822971351974   11.22003177380804
N        -1.17062342056801    6.60007170752284   13.87138556161534
N         0.44564499550021    8.04346870622432   12.49321216191805
C         0.80609197831359    5.82842256770889    9.31333462251782
H         1.35001072774268    5.10524051345678    9.90668692754032
C         1.07634325002654    5.96787520548083    7.96724727322505
H         1.83849778722088    5.35777519435418    7.51152402316545
C         0.35030974523221    6.89041718535802    7.21681176102016
H         0.54599622515592    7.02120677779921    6.16401065188704
C        -0.63483411044779    7.61641780218642    7.84676058240238
H        -1.24626485289886    8.32601974270371    7.31142659615457
C        -0.86239244051366    7.42116352874566    9.21341065112252
C        -1.85677038217806    8.11208458675376    9.96191033676224
H        -2.48445702400186    8.86787663317998    9.50237112690802
C        -2.85278810919132    8.49151214613027   12.05046469020048
C        -2.81850990039098    9.88086963992546   12.11762909606725
H        -2.13948313311273   10.42694809896790   11.47760885427012
C        -3.61989635065797   10.56835796555168   13.01085496769799
H        -3.55442648837800   11.64446145361343   13.04684394289017
C        -4.49154689158853    9.87220125052330   13.84221399191071
C        -4.55759020080527    8.47860766488171   13.74336087342865
H        -5.25839306168105    7.95392692797697   14.37225089064051
C        -3.75210790828720    7.79638581689811   12.86408936449939
H        -3.82918344095792    6.72443977566194   12.77167016087872
C        -5.32148177647181   11.84211323276022   14.88921997495669
H        -6.05215405045571   12.06176413792797   15.66566190695163
H        -5.62833427502967   12.32741129537093   13.95726782229123
H        -4.34301270741581   12.22618372702575   15.19576167439453
C        -1.96477979735789    5.78500060480875   14.56574771563458
H        -2.37169715003014    4.93535346050980   14.03321405110679
C        -2.25948948304439    5.97573893832616   15.90034851566243
H        -2.90319840283511    5.27686649306658   16.40830723467215
C        -1.70997663245993    7.06577666385910   16.57216067759466
H        -1.92893386861855    7.23894514464869   17.61421025802969
C        -0.86620830257666    7.90427959838147   15.87969865651511
H        -0.39112921701019    8.74868377481721   16.35428942190652
C        -0.60262205199113    7.64904177365848   14.52954578235940
C         0.26091662641021    8.44188343290854   13.72174811933283
H         0.74419372253911    9.32977979547196   14.11473781773477
C         1.19087925329872    8.81496348568850   11.59966604458274
C         2.21021303542599    8.22168119539495   10.84938798514739
H         2.47882519519630    7.19468369301005   11.04115707410149
C         2.88691597494641    8.95344401531294    9.90391472316853
H         3.67763745613458    8.50842985709619    9.32198765525092
C         2.56806047453813   10.29559979558002    9.67340804530130
C         1.57757860428442   10.89721815690549   10.44314217405165
H         1.31837021047173   11.93538046096304   10.30669807662347
C         0.90632440475716   10.16266851946452   11.40379393520475
H         0.13385217363275   10.63349915770188   11.99583449960958
C         3.02443731946567   12.27147566560211    8.42708407521303
H         3.70131821512396   12.54279950976268    7.61883758649513
H         3.23451827722133   12.89840183818235    9.29952732538799
H         1.99144116011463   12.43292061195775    8.10185954183937

