100
CSD_code = LULGAC | q = 0 | S = 0 | Stoichiometry = C36H50B9O4Y | MND = 9
Y         2.53485661367958    4.28141571037816   18.90550003567251
O         2.31005862564232    2.95507863329596   17.28717749878988
O         4.85299173442906    2.47416415865281   19.00750490612215
O         2.01758524446493    2.48068421651668   20.79775607762732
O        -0.19550050055007    4.52437214500353   19.37971002180803
C         3.98112524258242    6.41601846634693   17.96116222965957
C         4.94503617934581    5.69697319879930   18.94305261846860
H         5.60853639598552    4.96264653582399   18.49349015103970
C         3.83103588920773    5.69549228265604   16.68591294850381
C         4.81667368481193    4.80143879074815   16.04829065789263
C         6.20444677024803    4.78413231043654   16.08627336466797
H         6.75916263337731    5.49993603497695   16.67453835820612
C         6.88721508621760    3.86086393158533   15.30980323874303
H         7.96845172237905    3.84852662282858   15.32491367500102
C         6.20465872389330    2.95918365261159   14.50733187391947
H         6.75683048059535    2.24608281799734   13.91152151467016
C         4.81829979670141    2.98906137035598   14.43483184359519
H         4.28947178127443    2.30698075605972   13.78492720121958
C         4.13501204169519    3.92089723474512   15.18754401568776
C         2.67299722986187    4.23558954487861   15.21880805035897
H         2.26652178511097    4.33734980244077   14.21189239588806
C         2.64040697475687    5.46695424560523   16.05902081415111
H         1.72153935156065    6.00648260256350   16.21815912854622
C         1.83588619762531    3.12946356279056   16.00326124009582
C         0.33803355460437    3.46176572685156   16.03468824710027
C        -0.44040246346867    2.65751372713684   16.86399225670565
H         0.05479857113639    1.89398409118038   17.44851436977824
C        -1.81240132704377    2.80496649876767   16.91993640317347
H        -2.40028450854510    2.14836399376882   17.54691719580559
C        -2.43631619786524    3.77931205829446   16.15789602199651
H        -3.50935314919770    3.90188551793248   16.19843897548881
C        -1.67344053736898    4.58807881971836   15.33497043064932
H        -2.15109223298721    5.34908152402220   14.73413779673350
C        -0.29884145086159    4.42496122945494   15.26336561707903
H         0.25925844128981    5.06111567858561   14.59408104483661
C         1.88678226625063    1.83060372123651   15.18947233640421
C         2.24497332531255    0.63877366311096   15.80155700833612
H         2.49543287859252    0.65914319798628   16.85015706834786
C         2.27438385497291   -0.54755870003107   15.09068460021663
H         2.56571765167702   -1.46356436480283   15.58528286999909
C         1.92707867794653   -0.56263347988190   13.75213120139718
H         1.95160468500062   -1.48570973813251   13.19149915571327
C         1.53253982427113    0.61514569480655   13.13907092859653
H         1.24039461984137    0.61026646829590   12.09859391359766
C         1.50606789033051    1.79946660533607   13.85161322083312
H         1.17579947663680    2.70081497730443   13.35635186038858
C         4.93174706875347    1.51128672334752   17.95646213122847
H         4.38707233377693    1.92241549971983   17.10649513108039
H         4.44490383467559    0.58121962227122   18.28251139932347
C         6.42001472378529    1.25732581553673   17.65732488753954
H         6.67325207937530    0.21223641387660   17.83552440123628
H         6.66283713620162    1.50085481170925   16.62604915084198
C         7.14298183485245    2.17262484027420   18.64818031064598
H         8.05776577764509    1.73783635519396   19.04412397591628
H         7.37836882002744    3.12751440746082   18.17904373717763
C         6.07712903563582    2.37045350975956   19.72246594027967
H         6.04853180599033    1.49462501322523   20.39042295668890
H         6.21274156613564    3.27399846128665   20.31423044210920
C         2.27866489595844    2.52772846042102   22.19635998861631
H         1.36164748194955    2.27501620127132   22.74955255058518
H         2.59830641889649    3.53863013855254   22.45015324139782
C         3.35432019330663    1.46435972171953   22.42561428513990
H         3.33231423712551    1.07176028256354   23.43942153347349
H         4.33594870283504    1.89586940513575   22.23607883544282
C         3.01652111523661    0.40002214886266   21.36858010187268
H         2.59571658999718   -0.49752204151894   21.81945614521825
H         3.90037578549656    0.11409837559332   20.80268940593986
C         1.97937869332213    1.09560433313549   20.46733956776766
H         2.19271548924227    1.01084235001832   19.40061106666015
H         0.97231644775009    0.70212482928379   20.67118303184627
C        -0.98446551279536    5.68368619281727   19.06711482726680
H        -1.30940973916115    5.60513449494791   18.02215054525344
H        -0.36045827764891    6.57088730268305   19.19080152442780
C        -2.17968224209490    5.66831926210957   20.01541755635428
H        -3.04785368198411    6.16330229542405   19.58804281177562
H        -1.92138626096659    6.15215211546077   20.95758913685353
C        -2.38529379107780    4.17186471377530   20.22496472264254
H        -2.91833622095296    3.74556493917102   19.37556269174215
H        -2.92102939015298    3.93444271826593   21.14120442729562
C        -0.94348980369690    3.67306706570423   20.25120094668246
H        -0.52600584615005    3.75207432041208   21.26438894153340
H        -0.83872637577160    2.64431467421035   19.89800826595539
B         4.26621046264848    5.40748018974525   20.39988433864962
H         4.66425271218252    4.50764100901561   21.08247827311301
B         2.64479278398774    6.15916656137488   20.36604947971683
H         1.74768615998487    5.97952593829341   21.14643964918541
B         2.53603678975293    6.80865155198699   18.71824912955305
H         1.56004536466699    6.99128855717440   18.05224206501835
B         5.34402937514058    7.32552823921106   18.52741373805707
H         6.24361533451640    7.53348367164291   17.79748882330783
B         5.52922742690483    6.71458852655519   20.18056568075868
H         6.61359801064792    6.51893893022194   20.60461689628411
B         4.05356173880233    7.03514893914986   21.09038203925179
H         4.08249564349331    7.23146704476173   22.25592490780560
B         2.95582232202087    7.91872633495446   20.00605269536642
H         2.19084495130668    8.73392209968886   20.38960625667899
B         3.76298561743324    8.07933137654869   18.42112447250378
H         3.55172859443795    8.87829826442131   17.58201581973203
B         4.71720287887675    8.24385295825992   19.89544347267507
H         5.17739537247503    9.27175849442929   20.23946526335400

