64
CSD_code = LULHIK | q = 0 | S = 0 | Stoichiometry = C28H30BNO2PtS | MND = 4
Pt       -2.37462369904558    4.30508097416113   -6.82625560466559
S        -3.10609727815898    5.57774745017652   -4.99696720118299
O        -5.62139688426814    8.95420339757456   -7.69315339884627
H        -6.09438276304105    9.76766550097097   -7.51937749131224
O        -3.48213371141990    6.98744168984411   -5.08674126985053
B        -5.45920752630190    8.58670440009040   -8.96639268657566
N        -3.34412536058259    5.45189365621623   -8.34213319821534
C        -1.94509944918559    3.15660276397349   -8.40949336666859
C        -1.20651594098015    1.97463229021699   -8.45780462687894
H        -0.78838256890218    1.56665660213132   -7.54896717065422
C        -0.99047921170821    1.30464192987587   -9.65163364177843
H        -0.41344522437282    0.39101104336761   -9.65874701501516
C        -1.50902523088162    1.80108001843177  -10.83631332905304
H        -1.33932592685848    1.27935436944307  -11.76702712873172
C        -2.24400117676694    2.96914637475920  -10.82508342033291
H        -2.63911742913859    3.34643917701695  -11.75657715742127
C        -2.46873716603534    3.65182361937921   -9.62911658492287
C        -3.23690767679888    4.89592943961492   -9.56673518660523
C        -3.83866615044552    5.50931811350581  -10.66669802846323
H        -3.75385087498919    5.07079387645478  -11.64753063328560
C        -4.54733333176816    6.68072507917699  -10.49726630013067
H        -5.01894296402766    7.16098415345686  -11.34321466977976
C        -4.65975425452685    7.25492701310117   -9.22852962880996
C        -4.01900515557825    6.57951048104906   -8.18862265186670
H        -4.06185312916246    6.99941378046278   -7.19197467159590
C        -1.40658956804004    3.14725469608006   -5.51340713325768
C        -0.15775756464215    3.55394127868667   -5.03997381309559
H         0.31599873301015    4.43234772390837   -5.46893547189823
C         0.49762692219367    2.85769229461618   -4.03812526476750
H         1.46604500724249    3.19102411223852   -3.69047954045223
C        -0.08653476158779    1.73451459747984   -3.47709243397770
H         0.41958479822305    1.19233203306306   -2.69089785953839
C        -1.31954581370311    1.30568018208764   -3.93740080150462
H        -1.77651792154586    0.42284789232727   -3.51060185722742
C        -1.96715705156745    2.00198426636454   -4.94573411015840
H        -2.92193588028411    1.63463457112727   -5.30842892889506
C        -2.40736219017658    5.36345458594099   -3.31824749344671
H        -3.08258830070108    5.82967345974556   -2.61044662993994
H        -1.44438374443759    5.86138301710619   -3.29369688232542
H        -2.28248672713993    4.30627107394922   -3.11945929028502
C        -4.65659906326437    4.65653153654877   -4.67616898854890
H        -5.19520041093252    5.12195760541166   -3.85828734520168
H        -4.39314912004804    3.63066373048568   -4.43999871384912
H        -5.26030594419394    4.69201665358260   -5.57969460012799
C        -6.04023464333398    9.39823849321675  -10.19957752183458
C        -7.34160887716626    9.16007865681159  -10.65431616644070
C        -7.83874078908126    9.85936220584144  -11.74226624897852
H        -8.84555172060440    9.66345424634859  -12.08535227032921
C        -7.06729221112905   10.80477706381407  -12.40422983292486
C        -5.77701729837513   11.03606202876668  -11.95337346131929
H        -5.15961693790466   11.76565675183318  -12.45941567649286
C        -5.25978090318591   10.34617628839588  -10.86645891894762
C        -8.20185065347710    8.14944446971583   -9.94993918905018
H        -9.05695216248404    7.87293707206185  -10.56239764314279
H        -8.57560105037083    8.55849691070626   -9.01064769313638
H        -7.62868541942490    7.25383291973455   -9.71596414558559
C        -7.61725963725075   11.53603554055627  -13.59172884099979
H        -7.01853695551587   12.41447701328050  -13.81981877318355
H        -8.64456020393488   11.84679803412299  -13.41084731128840
H        -7.61498786087841   10.88479524461766  -14.46637147128522
C        -3.86461735065016   10.63053821971253  -10.38906695281941
H        -3.28151941883267   11.12292455533152  -11.16405871103800
H        -3.36276548216718    9.70970564396957  -10.09685563082767
H        -3.89045173770743   11.28517613595927   -9.51698031925343

