82
CSD_code = LULNOW | q = 0 | S = 0 | Stoichiometry = C38H39BrNOPPd | MND = 4
Pd        2.84672128339628    5.33710576167044    4.99913783085650
Br        4.33928752187280    4.07582335202789    3.61928651650454
P         1.92935478585059    7.01974992993311    6.17710068398820
C         1.63679165660227    5.67364081385596    8.63144858628761
C         2.65196885475726    7.10273987488303    2.57815712809433
H         3.67911364769009    7.40483716613351    2.75196356474526
C         2.06156695025916    6.09747033742264    3.33018291447413
C         0.05230160078606    6.30718766998951    2.01504274819262
H        -0.95205025103473    5.96978627633058    1.80962205955435
C         5.35037908148041    3.54357249772087    6.81438724328440
C         1.22293776707327    6.75360884156567    7.82853532782457
C         1.17546907498702    9.29811120679246    4.71730705613777
H         2.19776306713916    9.63307201916377    4.82652005511234
C         3.35684411274568    8.98705848383582    7.63762227448942
H         2.48892580567414    9.07009294396188    8.27709780654436
C         0.27599109608066    7.64680687758977    8.32456755766771
H        -0.04804594642619    8.46860702919468    7.70083450965729
C         3.96311458044588    3.36864525518870    6.91341750222225
C         0.62504673707316    7.34769669167622    1.29679132954527
C         1.09035696551812    5.55032361701091    9.91565716044643
H         1.40470211317380    4.72460881874825   10.53895486754523
C         0.77231394800599    5.69232295709491    3.02942136264970
H         0.29684825886981    4.88504260460436    3.58598286272748
C         4.20420033468170    1.01898496520008    6.56532593080111
H         3.78275458207540    0.03640434907811    6.43011754644837
C         4.48141135727059    7.99598056599603    5.75481138740249
H         4.48498238642970    7.29195531567560    4.91716710184068
C         3.35426341124772    8.09578940173465    6.56973220826687
C         6.14634256651155    2.42477667809735    6.63513484784009
H         7.21609320707525    2.53195730459944    6.56545526860819
C         0.75732279571675    8.13307193113970    5.34959474639013
C         1.93773781501616    7.72403842213936    1.57215023314421
H         2.37961936365939    8.51487952053046    0.98612139683236
C        -0.25029395955238    7.50396701159499    9.59400802966546
H        -0.97689641040320    8.21413869292826    9.95947054997182
C        -0.55383306663913    7.69208008435177    5.18004254372289
H        -0.86760171920411    6.76939309424537    5.65325947571948
C         5.59148080577092    9.66274543895898    7.07212565009637
H         6.46144645223734   10.27031698306899    7.27311631357168
C         4.47446827503676    9.76406481323640    7.88572123339342
H         4.47385487997924   10.45120119879072    8.71938597406243
C         5.59309284946909    8.78067965315823    6.00373378414572
H         6.46179611538276    8.70060019642730    5.36691792433819
C        -1.02135999775508    9.59058910814340    3.79623697415835
H        -1.71067213566789   10.15735507441595    3.18814419867746
C         5.57741808402485    1.17123227100843    6.51833433813069
H         6.20618430009871    0.30713319775627    6.36536527537627
C         3.36765617837243    2.10361145255303    6.78234651816454
C        -1.44110797590284    8.42425822084707    4.41686799697259
H        -2.45821784830806    8.08049538905545    4.29501696710972
C         0.28447634083823   10.02399154371909    3.94729487814768
H         0.61397927947854   10.92691216040821    3.45533470281699
C         0.16513183612947    6.45126592677865   10.39685397408722
H        -0.23690644174835    6.33435158241381   11.39181773023242
O        -0.00710251799159    8.06344661285466    0.31548325348158
C        -1.33634958035476    7.73373741525590    0.00607871782931
H        -1.64022564043432    8.42937651964503   -0.77496703561230
H        -1.99319853265866    7.85538963143775    0.87486006007155
H        -1.42182639879361    6.70929293168333   -0.37173582964530
C         2.55966926998814    4.63341965288811    8.22597376397982
H         2.71538437405941    3.86217460783939    8.99132210590490
N         3.17309685874435    4.52114821522277    7.11207469403997
C         1.85744517440527    1.96156162862940    6.74176695196462
H         1.40878879958823    2.65045315371512    7.46864088019802
C         5.91154524885384    4.94405890743187    6.89794552248499
H         5.15620370124292    5.62023459728958    6.46118700818752
C         1.36836767286061    0.55725561835819    7.09343854491581
H         1.81354634489077    0.21353142010989    8.02499993562386
H         1.60933363541408   -0.15062136652345    6.30471995491300
H         0.28652520184829    0.56773704922849    7.21317718122695
C         1.36018015790123    2.36058717279118    5.34625814758493
H         0.28033159835079    2.23526636053319    5.27841647982815
H         1.83699834788213    1.74406848324201    4.58572480642336
H         1.60264039959977    3.42192558841240    5.13448943313747
C         6.12166464649002    5.35712082714054    8.35721304537182
H         5.18939405893242    5.30906190912004    8.91829421078698
H         6.49522973862911    6.37843305893693    8.40704000700307
H         6.84465041992314    4.69801211240756    8.83432342852081
C         7.19917161725674    5.12063800380548    6.09819020481559
H         7.06269224981311    4.74667106923278    5.08635285066399
H         8.03065492286622    4.59631575491204    6.56297163271796
H         7.45466185774989    6.17747048985256    6.04971539478498

