24
CSD_code = LULNAH | q = 0 | S = 0 | Stoichiometry = C9H8BrN2O3Re | MND = 6
Re       -0.24208292250012    8.19211229266144   12.93147539634499
Br       -0.46662679112134    6.49313966785606   11.04520529110637
N         1.58750202142121    7.06391168967309   13.38085959898022
N        -0.91311695063688    6.41036202652168   14.22874747879031
H        -1.12516513157122    5.68059899212942   13.53761750034382
H        -1.74800235719159    6.52674631925152   14.80304783197436
O         0.12713026595363    9.94433525434320   15.44389581713404
O         1.04204181362600   10.23797671427143   11.00200482095643
O        -3.08835659103084    9.21897241499422   12.29014920678864
C        -0.01229932458099    9.29901188352277   14.50467123494675
C         0.54800139039237    9.51618939470623   11.74301548672802
C        -2.02186769262655    8.88895959646769   12.54125547225200
C         2.70942545421445    7.18494739996371   12.67371149922965
H         2.74274765362347    7.99541753637838   11.95727262074421
C         3.78570590095423    6.32955037819254   12.81723993711569
H         4.66769046335298    6.47113527213142   12.21453382032737
C         3.69829297733317    5.29482679669116   13.73460665317377
H         4.51307873066970    4.60086412291245   13.87004848875140
C         2.53257235074691    5.16486235449297   14.46981518944551
H         2.41595694539474    4.37063063055836   15.19086936623418
C         1.49912799986191    6.06690002329156   14.26809321915793
C         0.21557121877900    5.97501403841888   15.05788351327731
H         0.08299842785933    4.95339222395364   15.43709609737706
H         0.29507414707531    6.65184297661493   15.91938445882011

