47
CSD_code = LULNOV | q = 1 | S = 0 | Stoichiometry = C19H19N3O5Re(1+) | MND = 6
Re       15.99535509275059    3.55242487164486    2.41793823014250
O        17.71719745332235    2.62725422963206    4.81639450275181
O        14.25570885392910    0.99926861365849    2.58706517101968
O        17.81824184968367    2.25401047625798    0.28140678550329
O        18.64197494411820    7.93380641351857    2.09296917209345
O        20.51246338504552    6.70975961689150    2.31827981629048
N        17.03697361429153    5.57605624810620    2.27327322238644
N        14.78864091624015    4.56616874856622    0.94515012141025
N        14.73031180919315    4.78740000617827    3.65169888633764
C        17.08502882129721    2.92419261006957    3.91614802740616
C        14.91735603588003    1.92684937768757    2.52639827872801
C        17.14741704745679    2.69188433902804    1.09178017595987
C        16.60588089164392    6.16822673639897    0.98856916185317
H        16.72567086628327    7.25665561651599    0.99542415588167
H        17.25590270548917    5.76955193731605    0.19869302124844
C        15.19734145717207    5.79652137798147    0.61612275377652
C        14.39531598125344    6.67181444128426   -0.10396087288579
H        14.76086993197077    7.65760820798469   -0.34434001793232
C        13.13866955380643    6.25825303350618   -0.51093674155622
H        12.49844511173155    6.92009996152893   -1.07210742773089
C        12.72827506562107    4.97352723878643   -0.18628506029735
H        11.76508126909387    4.60022488252981   -0.49193947671528
C        13.58044082673838    4.16740474797911    0.54429547120290
H        13.29288256882120    3.15982797334781    0.81279320817185
C        16.53775253194399    6.38457778706984    3.40615891071564
H        16.64595349479999    7.45563695049366    3.20484616847626
H        17.15350580368617    6.15121568662348    4.28466348154586
C        15.11741442837209    6.06113375585615    3.78030373947929
C        14.28172054242109    7.03539632293258    4.31025914173361
H        14.63061129692966    8.05267420667609    4.39154793990895
C        13.01377899359463    6.68011902244172    4.73644936672919
H        12.34773984984576    7.41899556941466    5.15272538655151
C        12.62575797551779    5.35308689684901    4.62258944668509
H        11.65480061508712    5.02409848509839    4.95352291192334
C        13.51075917753169    4.44621708628665    4.07149468146429
H        13.24139712447824    3.40367667183662    3.96922779628138
C        18.50926828426047    5.51958067790336    2.32074359668021
H        18.88006321773049    4.89708487454021    1.50092223044263
H        18.82975340668089    5.04124302053174    3.25092514364010
C        19.21413513255299    6.88085218445479    2.22860470944134
C        21.37345749752915    7.86187630026318    2.23194017751298
H        21.62583599819114    8.15598146420776    3.25504284782210
H        20.82295901613618    8.67626706659763    1.75151240586453
C        22.61849190589415    7.48544169756072    1.45217114894449
H        23.12177741025167    6.64973520993773    1.93008712606046
H        23.29377363228084    8.33490895626407    1.42406377616164
H        22.36374661145077    7.20480839976159    0.43356730088921

