38
CSD_code = LULPEN | q = 0 | S = 0 | Stoichiometry = C16H13N2O5ReS | MND = 6
Re        3.59050883608080    6.10573536428195    1.56307210580334
S         6.50137703105829   10.76772198943025    3.07868840098972
O         5.80247213922705    4.93217623592656   -0.24581249369455
O         1.92012127123384    3.50517498347097    1.60382163215016
O         4.98568032401351    5.37828872884114    4.22186282815727
O         2.08951388729760    7.30040954561591    2.50534293876104
O         1.34340065750052    9.39009731627974    2.44268364170285
N         4.51415707177639    8.22579419536939    1.51387789874457
N         2.51291792902816    7.06800342036740   -0.06282807034266
C         4.97057540247438    5.31848508019496    0.44923354846736
C         2.57231571835658    4.44430046883785    1.58169981907243
C         4.47997354498688    5.59478501323009    3.21898370907212
C         4.27588347332812    8.69730027664891    0.14007229282174
H         5.00044583231829    8.20343229956002   -0.52184755162376
H         4.42048989900282    9.78327649146285    0.06163004310898
C         2.89260590587076    8.32385991381185   -0.31869707897297
C         2.06872501603063    9.22577903777780   -0.97414957543170
H         2.40647542274802   10.23590505336093   -1.14523117210517
C         0.80763770418645    8.81799489280408   -1.37267751145174
H         0.13792868467826    9.50845080723256   -1.86118616397753
C         0.42369912429615    7.51178717656338   -1.11733873320099
H        -0.54961507103888    7.14823890756404   -1.40377663160564
C         1.30605070981081    6.67478858313569   -0.45922039128080
H         1.03628374381387    5.65213155353145   -0.23202948100499
C         5.96157816511386    8.30314740872670    1.83163976379087
H         6.09586461928170    7.91867001030347    2.84662570399131
H         6.49199046493979    7.63515882341942    1.14381386578632
C         6.54536843245497    9.67484897944674    1.73102214402171
C         7.15334942388948   10.25110169253296    0.65574483765345
H         7.30293967035897    9.74587163749285   -0.28267497727772
C         7.58510145709972   11.57238139342845    0.90515710229522
H         8.08621171779211   12.18430327286706    0.17711820786491
C         7.30094294082395   11.98202148332532    2.16706825902716
H         7.50947555232667   12.92842777604391    2.62472142515141
C         3.72328535231718    9.03796310296146    2.44822408525642
H         3.75633260834598   10.10554099788829    2.20444749569359
H         4.10423318250740    8.89412757899104    3.46432313535593
C         2.22780215466873    8.55491850727174    2.46419494722906

