43
CSD_code = LULQIS | q = 0 | S = 0 | Stoichiometry = C16H16N10Ni | MND = 4
Ni        8.62170872299926   -1.02776592581710    7.74745281128842
N         8.00777170406531    0.55076757425155    8.52507599053679
H         7.77151846707097    0.54873123267120    9.51618136458749
N         9.36929177331620    0.04183539406705    6.33576155484517
N         9.17925780011933    1.59011746742033    4.73886762556160
H         8.85176699972965    2.42297262980859    4.28306680698071
N         7.91808764386322    1.96013882374751    6.64239844215121
N         6.91570860702084    2.60293430217501    8.57679911375654
H         6.89840141848554    2.59084217902355    9.58247978157148
H         6.84430679137404    3.49783929644678    8.12462165879355
C         7.64827094782237    1.65475655998277    7.91459902917276
C         8.74910789019146    1.18313509825538    5.97122606748027
C        10.17175301012433    0.73951653932257    4.32478654890509
C        10.96907891718590    0.73158154386752    3.19675275386223
H        10.84462967328954    1.47080762269887    2.41999479859016
C        11.94705713784466   -0.24541992806883    3.11500234530452
H        12.59071719765127   -0.28254102083584    2.24906826451713
C        12.13374771737340   -1.15761859231303    4.14769596423904
H        12.93400477432531   -1.87933292438933    4.07279920988866
C        11.33271210644424   -1.15581823175851    5.27640349339979
H        11.52820901420727   -1.83634578006738    6.09088916436336
C        10.30638121738818   -0.22008278386116    5.35352594500496
N         9.23565770695668   -2.60630234686306    6.96984482094844
H         9.47191627573773   -2.60427385311913    5.97874218675860
C         9.59516053098006   -3.71028407521018    7.58033332949359
N         9.32532634755272   -4.01566379108957    8.85253113451279
C         8.49429032841376   -3.23866245865921    9.52368651341328
N         7.87411257756753   -2.09736463729341    9.15913648069636
C         6.93700124074143   -1.83544614139115   10.14135067576899
C         7.07160422676151   -2.79504684240181   11.17009156206848
N         8.06411109995636   -3.64564630702300   10.75603418525153
H         8.39159227353592   -4.47850204665692   11.21184071150209
C         6.27424931167223   -2.78711342078874   12.29810506321057
H         6.39868041054280   -3.52634105413343   13.07486405017235
C         5.29626842870015   -1.81011355337100   12.37983231227908
H         4.65258671981955   -1.77299499016218   13.24575041280321
C         5.10960399579256   -0.89791272582862   11.34713610121763
H         4.30934459497886   -0.17619890565795   11.42201534370329
C         5.91066966755613   -0.89971001828721   10.21844888879060
H         5.71519405911290   -0.21917944930498    9.40396085814476
N        10.32773972135079   -4.65845932222788    6.91814822916351
H        10.34505856673970   -4.64637354497376    5.91246734150031
H        10.39914238363839   -5.55336159218435    7.37033106379967

