25
CSD_code = LULROA | q = 0 | S = 0 | Stoichiometry = C8H9Cl2N5Zn | MND = 4
Zn        4.77815059392497    3.48102896619723   -0.57612411290152
Cl        5.62735566962506    2.83411930976132    1.29654521932420
Cl        2.62660431539993    3.38616159361999   -1.34752127855276
N         5.26730622102728    2.49933645552707   -4.45549816887469
H         4.93199120346478    2.68355471678923   -5.38613735928094
C         5.14261545245385    3.30523071086901   -3.36735172725629
N         5.63512687715477    2.76203365377098   -2.28449389663330
C         6.70121682481802    0.52603488865754   -1.88691337496695
H         6.86566491557012    0.67312082587316   -0.83162197535086
C         7.06006506211680   -0.63714730084147   -2.53941480895804
H         7.52692203797753   -1.43390405945654   -1.98127257779243
C         6.83230400482529   -0.81446535093312   -3.90450682560369
H         7.12837367429112   -1.74185196823530   -4.37043560068261
C         6.23351091603645    0.16496827019266   -4.67583523618842
H         6.05471932074797    0.02387232419353   -5.73043181768270
C         5.87201743429837    1.33186652659243   -4.02696153159707
C         6.10006843332070    1.51649954514478   -2.65024859165034
N         4.58713628456214    4.54928753369410   -3.48967183426102
H         4.03518627252798    4.69397466747772   -4.32339761845547
C         4.44722285434466    5.50039796709983   -2.50685888667621
N         5.04491612079976    5.39548533691310   -1.37666783794919
H         4.91990702107583    6.20855944394670   -0.78440283089898
N         3.75505646300630    6.60496821264285   -2.90071510315093
H         3.09939471394539    6.52613847772818   -3.66128188857126
H         3.46826731268620    7.23702925277487   -2.16988033538780

