73
CSD_code = LULYOI | q = 0 | S = 0 | Stoichiometry = C29H38Cl2N2NiO | MND = 5
Ni        7.04740445129894   -3.18731511633759    6.06140475387060
Cl        8.16625072740905   -1.38632458006300    5.85758845321865
Cl        5.99672559088366   -4.93419193599699    6.81085392716480
N         8.56945808912910   -4.13182963397020    6.08017699980376
O         5.28426854977979   -2.24694655828827    6.11443734917645
H         4.63395047385434   -2.96981896607243    6.14570300585458
N         7.20830690015900   -3.71725289410448    3.80649468518351
C         9.21091405692390   -4.33070050792050    7.25380011637245
C         6.46934359596136   -3.28983539729985    2.70066655225406
C        10.96328765114108   -5.38629289745431    8.57405864817598
H        11.81512173686305   -6.04827756062095    8.62589938280066
C        10.09727808406479   -5.60236698080091    4.96216004947427
C         8.28069910761050   -4.40640015950038    3.72329353294251
C         8.99127280984609   -4.71809551530203    4.96525332843531
C         5.19530766057700   -3.85157583860511    2.51053168149621
C         8.76055298764321   -3.67813636235460    8.42018672283206
H         7.90033007383241   -3.01138701234642    8.34184530045645
C         9.39506198382424   -3.88517021411183    9.61293045429388
H         9.04770794765783   -3.38644763001617   10.50462854306755
C        10.33294613978160   -5.19724484819129    7.32840808283291
C         8.85587885152785   -4.94905461937546    2.45038109483057
H         9.67150577292941   -4.29929372587003    2.11953091519871
H         8.08441061359503   -4.93803697397528    1.67639556965588
C        10.74911093517973   -5.83636014016037    6.14550904150452
H        11.58937121172937   -6.51519347451742    6.18146208860932
C        10.50254425093881   -4.74517925713097    9.69065697840920
H        10.98953219360415   -4.89576855661520   10.64234488395624
C         4.73033559689632   -4.96227105359722    3.42107872137362
H         5.30482328592872   -4.90033047727349    4.35160962809375
C         6.09964546882428   -1.82726224960892    0.84005708304489
H         6.43386450880784   -1.03092265127989    0.19291709268785
C        10.53513877408759   -6.26959156589523    3.69177787693242
H        10.92092892966966   -7.26114278248469    3.93251989558517
H        11.35924660952844   -5.69271181161157    3.25711071289898
C         8.25286125245158   -1.56724087659603    2.09229838401416
H         8.78633565703154   -2.06146041083015    2.90831981779682
C         3.24658994556999   -4.85512592759266    3.77529678873950
H         2.98566705585060   -3.83465106343666    4.05015309478741
H         3.02805923505259   -5.50627327321566    4.61843363382873
H         2.61508285664483   -5.15789708930943    2.94291749199911
C         4.83526251413587   -1.22571762812040    5.24151273793689
H         4.70278668479636   -1.59178419055305    4.21922075667876
H         5.59698140406525   -0.44726722028317    5.24536903431814
H         3.89221284144243   -0.81154053414712    5.61137597082689
C         4.41348528304043   -3.40506031252508    1.45834597702058
H         3.44357958075338   -3.84605916118731    1.28967626309043
C         6.92836111162958   -2.25844378837732    1.86725734909542
C         9.85744039689774   -6.96279581101395    1.34098197417895
H        10.66260383454186   -6.34462915093794    0.93487510099799
H         9.02084050840393   -6.91444947391416    0.63942356637238
C         9.12357741637483   -1.61943319513549    0.83334538729881
H         9.19204622108949   -2.63357730164852    0.44362930838773
H        10.12674417723519   -1.26544671981768    1.06104660217665
H         8.71242286631250   -0.98527264219450    0.05199920832174
C         4.86124970863795   -2.39826735145158    0.62251967228409
H         4.24207831826585   -2.05587253600752   -0.19339271191108
C         8.02409827648110   -0.11744221087635    2.52630020625534
H         7.40902877206225    0.41809930277763    1.80699415196442
H         8.97879962249393    0.39422876870035    2.62027108047888
H         7.53682273596310   -0.09719017745077    3.49654753576205
C         5.02801093225679   -6.32090879992569    2.78101652606246
H         4.48840095753576   -6.42699240384219    1.84114881503525
H         4.72437571447004   -7.12144845393363    3.45118073318040
H         6.09214034203700   -6.42627883492935    2.58023301671788
C        10.34015368309900   -8.41266118662584    1.41490895693180
H        10.67040152520091   -8.70487806638058    0.41539514730595
H        11.20674919896400   -8.48646704460965    2.07409691866275
C         9.26088925803898   -9.38411457738722    1.87865979652219
H         8.36856459648031   -9.28240923344656    1.26495081002869
H         8.98752749835215   -9.20714203352077    2.91573054771339
H         9.61741750048877  -10.40807320100387    1.79585453305193
C         9.40091745497439   -6.36158503974955    2.67328293372055
H         8.59970743938169   -6.97934120074551    3.09134972987550

