91
CSD_code = LULYIA | q = 0 | S = 0 | Stoichiometry = C30H48N10NiS2 | MND = 6
Ni        2.87247157058867    5.71306921633059    2.18053725652596
S         6.81360949642947    3.70368636714938    2.05715142314755
S        -1.07795362753192    7.60765209451938    1.67112119787895
N         4.14311968685165    4.37043842479140    2.33285867173669
N         1.60473949921740    7.06456407640196    2.06507609485469
N         3.86075709077327    6.81827929612308    3.40696490439709
N         3.87725613293391    8.13468161774153    3.19964169287240
H         3.25105434616473    8.53157257954964    2.51055672033704
N         4.12787485138438    6.75535612486747    0.53031813584213
N         5.45451118111261    6.67561955554062    0.64350096242242
H         5.88229263424954    5.85076458303979    1.04557286000353
N         1.61719968906024    4.61040555636438    3.78017443682732
N         1.89792104749495    3.30616539357991    3.74852629091480
H         2.81565531206876    3.02128182939744    3.43061591003619
N         1.88207118107397    4.62647885642584    0.92147420177397
N         0.55130525009523    4.55421221049861    0.92513264283470
H        -0.00109365978148    5.17306132320004    1.50557939781438
C         5.28492323046954    4.11020301672826    2.21524530398450
C         0.46028960991824    7.28320515632634    1.89922476192294
C         4.72953755633167    6.58448462285561    4.37656344582315
H         4.91337094124678    5.59377988198253    4.74239499845515
C         5.31303715407334    7.78134246216426    4.79325224213398
H         6.05032987340893    7.89758510743154    5.55976686880930
C         4.73988350278499    8.76837898133399    4.01015245834650
C         4.92489759613101   10.25849167290524    4.00853053063556
C         4.13531444531940   10.83847566750956    5.19086105530040
H         3.07984439829090   10.59103687320905    5.10318635637492
H         4.23671378396139   11.92066764634422    5.21333277854213
H         4.50511818258198   10.43514072849733    6.13017479279205
C         6.41172759958755   10.59222793836741    4.16972537031438
H         6.98621056630431   10.18837907992699    3.33926444500389
H         6.80457291273982   10.17895036769064    5.09422365390522
H         6.55092439394897   11.67034651496541    4.19087802188278
C         4.40839134460909   10.86174244398681    2.69830978887264
H         4.87155626175101   10.37816649503343    1.84030117213126
H         4.64823272560500   11.92181718877065    2.66417840196724
H         3.32796785038009   10.76408222543035    2.61766801632520
C         3.89424000137064    7.92196195919998   -0.05174080809515
H         2.89174650956339    8.23351284783048   -0.27423065299266
C         5.09145142189929    8.60281591363951   -0.29776697080183
H         5.20128238887070    9.56269347060438   -0.75838562828982
C         6.08693640762959    7.76493334896076    0.16944408628830
C         7.58034821279021    7.89260032713297    0.22591172358603
C         7.99292563823413    9.32435763173845   -0.12295220661948
H         7.54572985735460   10.03333105232888    0.57066072636467
H         7.67789366338287    9.57933583745409   -1.13162844539967
H         9.07421340625360    9.42492980555395   -0.06735227998600
C         8.20058138862108    6.91545576538122   -0.78178436796362
H         7.84869037435037    7.13123893234355   -1.78838473662829
H         7.93648954809752    5.88953197970714   -0.53636816437401
H         9.28435844791057    7.00250896896438   -0.76716961936932
C         8.06410882710615    7.54548660899646    1.64081944723585
H         7.53529872485989    8.13681436575517    2.38615438355444
H         9.12852439399009    7.74921484771492    1.72973833803141
H         7.90506553877203    6.49397737100175    1.86634995943151
C         0.37039330591297    4.69429868885040    4.21595730455000
H        -0.10761055451205    5.64588327882979    4.34502627461011
C        -0.15558818989222    3.42080192682738    4.45292099472949
H        -1.13832745242640    3.18679561978221    4.80707624554849
C         0.86378728655978    2.53980657105811    4.13726708540758
C         0.89439606734352    1.03880450812180    4.13949188067176
C         0.40988615250208    0.52642899863561    5.50068234058762
H        -0.60128884897560    0.86857617443649    5.70343850255085
H         1.05979608089401    0.88739901294808    6.29453227806009
H         0.41534780801698   -0.56091598300487    5.51623852787054
C        -0.04214560967367    0.53603748709518    3.03154273123158
H         0.27510772378866    0.92245813590905    2.06434924195815
H        -1.06347730129975    0.85955232066153    3.21771076704215
H        -0.02767129301605   -0.55059304004542    2.99158568100154
C         2.31126591252283    0.52214431925794    3.87444814088421
H         2.65757222500531    0.81496966855451    2.88506760175637
H         2.31919172024193   -0.56435611479548    3.92287283390747
H         3.00842819301745    0.89763007866712    4.62058295995436
C         2.29535848369677    3.74846854283915    0.02104194174639
H         3.33851817927450    3.60205930895162   -0.17998351624397
C         1.20171618758419    3.10718851809698   -0.56219000258200
H         1.23432083365315    2.35135335279266   -1.31854353629957
C         0.08501432374488    3.65653672166832    0.04240162494521
C        -1.38532907239982    3.44835899804420   -0.17133684198955
C        -2.13183206606085    3.57103155446509    1.16262458163467
H        -1.68208450285053    2.93034021356780    1.91741393751807
H        -3.16950716690943    3.27479245411054    1.03126230660952
H        -2.12448937672314    4.59575959881010    1.52596887336374
C        -1.63132939887451    2.06442020022592   -0.77723392336969
H        -1.25081329722039    1.28553471906762   -0.12038432761384
H        -1.14321643658395    1.97462157890926   -1.74388922577597
H        -2.69735668612665    1.90508495028585   -0.91878992037293
C        -1.88148461825124    4.53569710306667   -1.13549607203361
H        -1.71264966663833    5.52449582716654   -0.71552144041679
H        -2.94680922421002    4.41564288430377   -1.31531557879698
H        -1.35831008389051    4.47129761069993   -2.08677232039345

