104
CSD_code = LULZOI | q = 0 | S = 0 | Stoichiometry = C33H60BN6O3Y | MND = 6
Y         4.28822128216810    9.53123937286809    3.99373481437699
B         5.67321962246325    9.80590503571934    0.69251867896999
C         5.64383846377358   11.21887518676563    1.48904908938764
C         5.85205718559975   13.44542693124613    1.59836120776419
H         5.32183761656273   14.20223012629029    1.01713714152014
H         6.83610276961191   13.83630803579279    1.88278403754615
C         5.04466772237138   12.92666309411675    2.80991597101686
C         3.56910173049333   13.31975435297900    2.67545199746493
H         3.22186657424006   13.09874215914486    1.66774061080625
H         3.44457311249855   14.38418610355106    2.86450080599263
H         2.96410206378699   12.75082878165395    3.37743752982133
C         5.61537912709172   13.40938600375301    4.13848613057446
H         6.67216827521323   13.16365298223003    4.21585359637195
H         5.08601312913098   12.93647672881813    4.96255239663533
H         5.50269408583455   14.48897947082183    4.21754286976573
C         6.42393158457339    8.61827347958268    1.48980533468258
C         7.87408457186939    6.91204250014208    1.51554704433386
H         8.96147276288823    6.98656255994066    1.44271442249687
H         7.55636927925456    5.93724711203771    1.12759269251247
C         7.34217745962373    7.18872942351886    2.94212057748875
C         8.46190662048446    7.74583996224445    3.82435764207900
H         8.86101375172885    8.65888654334685    3.38783113890117
H         9.26319716225566    7.01422738589639    3.91411662232160
H         8.08101915942147    7.97283904455611    4.81504574738194
C         6.77474476595180    5.91941544065802    3.57169013020291
H         5.94668418263505    5.53291070418047    2.98060919817747
H         6.44626319850224    6.11570162937681    4.58977511270897
H         7.55282988302298    5.15846892265815    3.60865572724057
C         4.09742551156455    9.44995182697604    0.61854342102666
C         2.08177325111422    9.21193175389924   -0.33167576078661
H         1.84880317509333    8.26062305495280   -0.82391622423108
H         1.47036755063602   10.00055589747129   -0.77574123793888
C         1.95851560264467    9.13474380461521    1.20780045902062
C         1.28869821975403    7.84057857748007    1.65925151962827
H         1.82815288072006    6.97945739859852    1.26693417280883
H         0.26558937440680    7.80415866391719    1.29017758546768
H         1.27864023798623    7.79583986158145    2.74361047180689
C         1.23035653064346   10.35957493382625    1.76671768769490
H         1.47678017390908   10.47721035686715    2.82296826066155
H         0.15462817403897   10.25383079339998    1.64058470605542
H         1.55733996607458   11.25581569898458    1.24311561749266
C         6.47922337916230   10.00382258923082   -0.69527356490913
C         6.01941385125402    9.66033513711137   -1.96197170521107
H         5.02822322949757    9.25058485090138   -2.07518784086714
C         6.79808194179613    9.83213901709282   -3.09502506226739
H         6.40427989505299    9.55636644001709   -4.06468213938732
C         8.07516341609861   10.35073694111834   -2.99329381260569
H         8.68503841174283   10.48667133959083   -3.87610319872372
C         8.56471531315949   10.68859494499709   -1.74320011719451
H         9.56577106992731   11.08839035945693   -1.64576143815946
C         7.77739943057777   10.51280093001607   -0.62168470543246
H         8.18485283418775   10.77599323244007    0.34582152590102
C         6.27294213627346    9.83158163468472    6.61945569455422
C         7.35564271107325   10.61048693878016    5.82391366981656
H         6.94318265630214   10.91059774777104    4.85773193991449
H         8.23096472911512    9.99051900177172    5.64596395095759
H         7.67880064234040   11.49614520998417    6.36824638197786
C         6.97650254443433    8.98466417439578    7.70032389304374
H         6.23581346134327    8.43649580460627    8.27801753492371
H         7.54676824590873    9.62005718591972    8.37417339892106
H         7.65878965337583    8.26522216457731    7.24933559096682
C         5.36960633140117   10.84361329183199    7.33588432055021
H         4.69410098662067   10.32089264175166    8.00637980712021
H         4.77884732497896   11.39092734325359    6.60309512418958
H         5.96339294476243   11.54614179358403    7.91746866826632
C         1.47383800593714   10.44836336663083    5.68067195825189
C         0.46369094435905   11.61561990387837    5.64808134132370
H         0.15812042042536   11.81756663314855    4.62390941389578
H         0.91307053728556   12.51949533845900    6.05498135483743
H        -0.41851115208448   11.37457865213684    6.23691454275575
C         1.92094444397217   10.23586816049571    7.14330368335379
H         2.32819970366259   11.15925316948370    7.55016568665905
H         2.69528270411190    9.47091218535295    7.16822569418796
H         1.08446139790166    9.92842958205430    7.76858705120989
C         0.77264236855842    9.17310706698622    5.19860266692540
H         0.18746221837658    9.36968947163886    4.30438705373945
H         0.10304480803358    8.79026980751143    5.96679300468244
H         1.54079868552761    8.43264925972406    4.97543649099156
C         2.96785512826390    5.78690163578145    5.21294389481353
C         3.12043752754158    6.46153101126400    6.57894447001097
H         4.04475336316891    7.03801638735869    6.60771019813091
H         3.13157045561660    5.71890591025060    7.37285164992851
H         2.29699074088299    7.14535915232046    6.75742699309085
C         1.50326429609215    5.43800361011812    4.93923947717480
H         1.40677523045785    4.88973437383418    4.00335005986376
H         0.89740644310016    6.33647854511479    4.87771160756840
H         1.11418753993916    4.81559538851651    5.74070987650683
C         3.79347595465034    4.49008628088797    5.18363338442352
H         3.81295287455198    4.06611096670436    4.18029429544089
H         3.36181387100087    3.74988944910055    5.85268838107157
H         4.81598828662046    4.67731070782535    5.50263237060865
N         5.15236394743785   11.46517338748472    2.64999462911670
N         6.32625331255298    8.23509907214207    2.70989494351690
N         3.36402378361844    9.18895225756948    1.63922959757841
N         5.46777256964612    8.97142779922534    5.76694211740447
H         6.08159736657934    8.18658515387542    5.53253511998796
N         2.59688897138719   10.75310314681829    4.80724838857954
H         2.95291043943516   11.64756008524515    5.16209570581706
N         3.44224501310898    6.72998269461434    4.17938972993524
H         3.12622123650453    6.40490323227576    3.26717777747873
H         4.45963939100756    6.68274769612856    4.16908369686442
O         6.03672096344238   12.29187494789173    0.79199839498888
O         7.28935502287077    7.92977063842302    0.72777671443924
O         3.45216625241004    9.51264146036948   -0.55249028073032

