103
CSD_code = LULZIC | q = 0 | S = 0 | Stoichiometry = C33H59BN3O4Si2Y | MND = 6
Y        23.28569368385804    5.74944563831843   24.58798901320071
Si       24.51612168895289    2.65842670652829   22.63113295139632
Si       25.15945873303501    4.00539796393310   27.30759858149103
B        20.71200760371034    8.22845338084086   24.30469926408760
C        19.78104101084599    4.53048935543367   24.38026197657915
C        19.85749988686985    3.69344568184856   25.65651751341253
H        20.85428385269613    3.27293550359005   25.76453363544038
H        19.13159150899450    2.88385815245099   25.61575786441594
H        19.64679471464962    4.31323824803695   26.52597008360920
C        20.14723722065466    3.68524059135961   23.15922964001110
H        20.01150381372630    4.26270844303830   22.24643310385129
H        19.51856295092185    2.79852000693720   23.11050959175842
H        21.19253840070083    3.38310827094838   23.22450030149926
C        18.40100631883411    5.21425817225347   24.22004704302550
H        17.89479592472865    4.94516407976331   23.28887484859412
H        17.73027960105476    5.01760545769548   25.06176508888058
C        20.01721598300740    6.76343897402960   24.34430867944873
C        22.82988454633123    7.36530367665585   21.24071074729862
C        22.43211790819906    6.01368840073736   20.64511015355771
H        23.02573864491304    5.22437172411320   21.09830152277735
H        22.59164709790902    6.01265564870629   19.56852454146844
H        21.37985396870122    5.81719354448038   20.84330840666738
C        24.28947359511652    7.67384716777500   20.92018392003993
H        24.54706785061666    8.68266661026798   21.23498658082362
H        24.45672075019225    7.59388032845233   19.84798781382460
H        24.93546030648681    6.96703087591170   21.43414081325630
C        21.87917130238832    8.48847483124383   20.76075895097563
H        22.41341180726873    9.38363293508043   20.42433925189351
H        21.19819446454725    8.16403389336477   19.97002201176596
C        21.59304326895299    8.11492977307524   22.95217473973601
C        22.85194166551751    8.18793312740829   27.49854190535103
C        22.82457296574747    7.00531505427237   28.46382438578134
H        22.90110640378239    7.36788690966339   29.48765726783127
H        23.65602804363260    6.33846995542414   28.26014307168151
H        21.89260068703867    6.45358300854291   28.35725011464192
C        24.20508431385386    8.89488321198363   27.58136505138374
H        24.18318672260878    9.82713437723738   27.02009549554350
H        24.97881203245094    8.24981645654652   27.17584153054842
H        24.43951080571160    9.12127881053403   28.61955028401520
C        21.68553451647171    9.16642258461541   27.78170780466807
H        21.02661548820273    8.81840955763818   28.58304158383473
H        22.02285908910899   10.18049468343205   28.01498488574907
C        21.52674204897065    8.35795393603760   25.69653287026782
C        24.81252999554385    4.42312321036897   23.23064769618034
H        25.10009767143269    5.01633772627452   22.35421511742001
H        25.71652934498879    4.38122114448004   23.85442631435971
C        18.38512055519084    9.55855717759593   24.30767493801882
H        17.84991290930552    8.63476570178826   24.46016659988841
C        17.66645260574334   10.74031169445779   24.22810575472916
H        16.58840071980411   10.72146153697881   24.31942826599665
C        18.31911229274792   11.94347962412571   24.03495048976643
H        17.76038651855063   12.86730131742363   23.97240932982827
C        19.69921011279762   11.95046255907977   23.92550876157090
H        20.22422034267634   12.88537570741676   23.77794096197992
C        20.40402354688669   10.76491169260628   24.00662294197568
H        21.48385260434648   10.79148132473681   23.92276880905902
C        19.77053258799469    9.53509826878487   24.19406408365678
C        23.49272556297384    2.56359521578050   21.00809175383250
H        22.47998528934922    2.93172277846840   21.13451312872236
H        23.42072233680194    1.53489387197966   20.66822183497704
H        23.95703650681283    3.13256133457806   20.20892869364770
C        23.61397724995333    1.51578061434958   23.87699521664015
H        24.19404734051124    1.39115009259385   24.78409598442992
H        23.46033243551651    0.52906625706362   23.44931374442490
H        22.63920420080247    1.90307100893279   24.15861287766949
C        26.16239470145492    1.75026176464993   22.22012523238190
H        26.73034751698339    2.28298240396179   21.46296325889577
H        25.99023302928967    0.74404122094834   21.85013926512245
H        26.79321063066348    1.66815062408977   23.10019495352068
C        23.50037370587492    4.20297990822027   26.44077073915716
H        22.73610970082464    4.46883952783358   27.17728782760148
H        23.21907569260165    3.21183030566573   26.07139131855852
C        26.23026745977581    2.61220264964351   26.54565319209502
H        25.78821035247709    1.63751895516483   26.72480019130536
H        27.22813284727974    2.59805230571384   26.97406324801909
H        26.32957709989786    2.73476538683774   25.47250327263145
C        25.02756148567881    3.58696469291116   29.18099711296690
H        24.45229688446037    4.33569691427041   29.71752672062515
H        26.00466416187295    3.52774389341398   29.65081205290496
H        24.53485807739590    2.63179581260492   29.33220248185599
C        26.20780279839811    5.61916636618829   27.20487753762751
H        25.80888665068033    6.27147537005424   26.42902042133159
H        27.24465541349249    5.40447306835192   26.96270607511815
H        26.20591351599728    6.16489794329674   28.14402701393090
C        26.75971310778312    7.43056041158058   23.99271571376656
H        26.94622482965297    7.56760422419731   22.91767807223904
H        27.01502293435181    6.41074390211928   24.27817813455313
C        27.49765138261156    8.50308871769201   24.80041798242579
H        28.44821672151205    8.77109067559208   24.34559344595832
H        27.68433549024708    8.14403872256041   25.81153687718915
C        26.49621330138820    9.66938628081122   24.81485114881641
H        26.33453785907114   10.03338433639968   25.82706397537981
H        26.83829226270367   10.50332549975268   24.20444333715072
C        25.21334830550788    9.05247074836976   24.22493833126537
H        24.30323639469165    9.29201299366776   24.77250336643706
H        25.09319998678624    9.37179882367711   23.18172369298159
N        20.69076387691831    5.67801310751171   24.46486938407639
N        22.56986855854980    7.32678023662898   22.68831866467011
N        22.57647182250571    7.75082765989659   26.11700065045903
O        18.69838717655533    6.60491848721985   24.19149681192319
O        21.11965970813124    8.81669078809283   21.91273908057315
O        20.95181349680752    9.19677985956617   26.57031212230742
O        25.38324513599188    7.64258984070561   24.27423910711311

