96
CSD_code = LUMFUV | q = 0 | S = 0 | Stoichiometry = C32H57MoNO3P2 | MND = 6
Mo        6.34561688094905    3.99291997217128   24.12760902021930
P         6.34171305829824    6.41058502294144   23.88206817922088
P         6.31326302697026    1.55748937133760   24.20403520155952
O         3.61582097360444    3.81612422407801   25.56814381923065
O         9.31365299332765    3.83400207497808   23.27143374022650
O         7.43393416903411    4.47804496186840   26.97643293424180
C         5.57832630917858    3.88088373311807   22.28015783892790
C         4.58704332501800    3.93642643363841   24.96364399753513
C         8.19275684914570    3.91739667603999   23.51091595976256
C         7.04406319273545    4.23848262398421   25.92040820432584
C         4.72014303937666    7.26882864673855   24.24312637902117
H         4.81366207855498    8.33137475181774   23.98850381433850
C         4.38921672082244    7.14580528264358   25.72921675040710
H         3.35236085426492    7.42791039037772   25.90933573728466
H         5.02086276315109    7.78837747921250   26.33756852215636
H         4.52512827268635    6.12044368241101   26.06833564584372
C         3.60363130941588    6.67513625930414   23.38895137717140
H         3.61238279735091    5.58722563634669   23.45369726072924
H         3.70785450302354    6.95982412823353   22.34398672608860
H         2.63466273607696    7.03176196822150   23.73665056569594
C         6.63476789469165    7.02314184783738   22.13228298468368
H         5.71583128763144    6.69008436002779   21.62870636685044
C         6.78324099676525    8.52860327553246   21.92202726918547
H         7.77757122281477    8.85903146576222   22.21075693431891
H         6.04585589344131    9.10127916641562   22.47728198423745
H         6.65559383892549    8.75925161098761   20.86384485767190
C         7.79996498434256    6.30220178230658   21.45988656220626
H         7.87788286258913    6.61814534407375   20.41862329777266
H         7.64949438440110    5.22504826377116   21.48083708404553
H         8.74369307158504    6.52788923033284   21.94983565872560
C         7.47996689336915    7.35433689465223   25.03583083905163
H         7.18110554961801    6.92866694546454   26.00550754977246
C         7.36710609372855    8.87628285922676   25.13983897409204
H         7.89355566157371    9.20111161173201   26.03749723267486
H         6.34039083171822    9.22046807701842   25.21821409326861
H         7.83319371347147    9.36896801076963   24.29234833284007
C         8.93974801070303    6.97409020662591   24.80383821409803
H         9.32565246402733    7.43747965416943   23.89790019753426
H         9.05161796277059    5.89544606144491   24.72297232568652
H         9.54993188435971    7.31482520932737   25.63986340630607
C         4.60971210504873    0.82884583779598   24.48735976833185
H         4.30170470161720    1.30486304091542   25.42790913578872
C         3.64036078923646    1.28191103275261   23.39681234831635
H         3.78260457603976    0.70756832755097   22.48241644791347
H         3.78052362392476    2.33714573863822   23.16652269487922
H         2.61244349512980    1.13459963709221   23.72607987884000
C         4.49810918518750   -0.68527699399593   24.65679826877864
H         3.48523877371735   -0.93217296094841   24.97543609317299
H         5.18380164649552   -1.06978014619392   25.40699567933180
H         4.67875529850146   -1.19775410955846   23.71461354174401
C         6.85494444468722    0.57356300383024   22.68714740938699
H         5.91291910886859    0.43762731869524   22.13684920046308
C         7.79053630144146    1.37347198658592   21.78501215659770
H         8.76912192849902    1.49486200037205   22.24375655784947
H         7.37968470143908    2.35947456673053   21.57802162304453
H         7.92903809035081    0.85072231015455   20.83759890028205
C         7.47390426837913   -0.80275363525951   22.93431343482444
H         6.85124925073986   -1.43798414683334   23.55615734941069
H         8.45292646802831   -0.71158880067726   23.39860598584029
H         7.60898940172681   -1.30569371788494   21.97616289124140
C         7.27034843784898    0.76837794866986   25.59526407143450
H         7.29317958727239   -0.31584526226398   25.44344729377360
C         6.61528678787867    1.06991774815557   26.94038798386934
H         7.31553856591323    0.86603471520148   27.74947001579887
H         5.72732949216126    0.46289527119823   27.10243357969745
H         6.32815119617716    2.11958380393139   26.99786540301491
C         8.70141365168000    1.29501149011396   25.56546356339261
H         8.71726993584488    2.35616191398459   25.80793966637980
H         9.14858658980331    1.16754656099368   24.58091606389703
H         9.31745484882684    0.76809390242707   26.29375167127548
N         5.11714512185718    3.87541433370598   21.20456381908199
C         4.60878929408910    3.81100840501989   19.89557154051294
C         3.73829842841147    5.04376721293203   19.62261160115044
H         4.33979017918291    5.94806633299823   19.74526162741011
H         2.92052357339068    5.08056275794287   20.34638955015830
C         5.77467636114494    3.77767876602250   18.89898946601240
H         6.40475245427751    2.90890250439661   19.10368032520932
H         6.38753559401568    4.67322490980316   19.02433846805561
C         3.76394653145881    2.54089142884256   19.73647405889146
H         2.94507685092441    2.55428708255448   20.45950110284284
H         4.38442836271740    1.66601806663404   19.94515162811646
C         3.18935822243662    4.96760494289129   18.19897403949555
H         2.56708705462393    5.84876063808192   18.00723386666507
C         4.35067603965872    4.93602492852313   17.20564353639950
H         4.94974206056385    5.84444534564554   17.30314095992867
H         3.96452108923879    4.89853516139300   16.18491318096494
C         5.21858160857238    3.70770950577038   17.47760703138613
H         6.05290246374900    3.68441298011933   16.76799572988451
C         4.37697220500991    2.44189342756072   17.31842400740333
H         3.99086681885078    2.37914239343779   16.29889252767134
H         4.99493648380486    1.55887715880937   17.49689414661594
C         3.21597833028890    2.47563486664678   18.31192229415662
H         2.61247879697426    1.56794396588632   18.20138482295767
C         2.34600663732573    3.70286621168269   18.04210015887372
H         1.50693116126554    3.72569228839498   18.74116622846514
H         1.93770966820547    3.65291080518477   17.03054976413047

