41
CSD_code = LUMRUH | q = 0 | S = 0 | Stoichiometry = C16H21ClN2Pd | MND = 4
Pd       -0.53554133430892    3.17438370192868    3.13988070940329
Cl        1.09316420606248    4.31369710142921    4.13810700459963
N         0.28702111461377    1.18295426872085    3.53959631387649
N        -2.02225280401061    1.86884953113724    2.21093679744083
C        -1.54558650811552    4.93414822473747    2.94354879663530
H        -2.38209087350917    4.81676545546947    2.24237119167638
H        -0.88753783314019    5.72991915285462    2.58305639049886
H        -1.92819827538309    5.22315694012700    3.93244877011190
C         1.17845283649502    0.97981643796041    4.50282917618914
H         1.78684437364479    1.83833650933678    4.76730787534782
C         1.32836985492573   -0.24800151150392    5.12729755479264
H         2.06559403141545   -0.37716530642124    5.90306178613980
C         0.51128992837635   -1.29321229394624    4.73127293895510
H         0.59208548045546   -2.26547251333272    5.19389036921791
C        -0.42087394555536   -1.07666245542066    3.72653890853722
H        -1.06152052112516   -1.88163274320437    3.40631813727141
C        -0.50944432866608    0.18128356708576    3.14766586969304
C        -1.45790607751396    0.51914610116700    2.01001801613183
H        -0.85453565132007    0.55343819921077    1.09445180156257
C        -2.57133214403720   -0.51042522802857    1.80669174821983
H        -3.25393900074338   -0.15445863457194    1.03686686988300
H        -3.12962764721718   -0.67059268726764    2.72801176762074
H        -2.16389079242434   -1.46144427091585    1.47413469114098
C        -2.64862138770077    2.43492704786667    1.05857723569726
C        -1.87302234868785    2.84526010370563   -0.03565718786073
C        -2.51961150683512    3.35608882333232   -1.15419853326045
H        -1.92752814594961    3.66986542891965   -2.00102539193604
C        -3.89367750717978    3.48708892716548   -1.19319217134340
H        -4.37739618634485    3.88207040341621   -2.07330816411423
C        -4.64360347714060    3.14337364083148   -0.08413755535135
H        -5.71445709104035    3.28357580940736   -0.09423320696191
C        -4.03861817810118    2.61991293899095    1.04851675722700
C        -0.37221410453624    2.82982081499799   -0.01268456923528
H         0.00667076648939    3.10213536767307    0.99967145490229
H         0.00884956890810    3.55784099339316   -0.72502049078877
H         0.03596660270974    1.85657666437669   -0.28954042007253
C        -4.87625185638057    2.31035695613890    2.25843460791082
H        -5.91694649362786    2.55177658816289    2.05858604263968
H        -4.55443483046293    2.91131247948500    3.11139922650265
H        -4.82674442249779    1.25664878097113    2.53395134184167
H        -2.69970349053734    1.82314068461371    2.97375753925367

