39
CSD_code = LUMRAN | q = 1 | S = 0 | Stoichiometry = C13H22N3Pd(1+) | MND = 4
Pd        6.18416568678098    2.35930186025643   15.92080579165772
N         7.92185674091478    1.03701265994185   15.48758290748059
N         6.04362323437365    2.32757542500909   13.86865757325436
N         6.35735105212397    2.38612267546968   17.82227545594289
C         4.58796547709430    3.64494504479721   16.06070729044949
H         4.29296968812897    3.86878442857197   17.08823229152574
H         3.72640017418517    3.20526820587546   15.54439831526945
H         4.86519879291001    4.58735421955887   15.56926944816315
C         8.54809947600847    0.10864102575335   16.20056874927088
H         8.29503505786602    0.05676675189479   17.25269343357350
C         9.47988107444412   -0.75329319394847   15.64493409233955
H         9.96909032442734   -1.49259631813773   16.25738191902031
C         9.76498905061734   -0.64140629578853   14.29299884374385
H        10.48588665073767   -1.29363482215327   13.82556691579173
C         9.10488755292122    0.32345125800777   13.54761977869060
H         9.30205782911207    0.43696403456449   12.49305954922489
C         8.18287209763286    1.14511775096737   14.18068464061299
C         7.46007155132625    2.25820307832662   13.45450552055619
H         7.55165784834374    2.11480075086231   12.37047022238846
C         8.12498961318825    3.59032952533029   13.83644154697746
H         7.69077145445196    4.41105882201354   13.26802885768981
H         9.19086234806842    3.55602086109283   13.62384111960887
H         7.98587808055235    3.78707181814094   14.91470420069480
C         5.11841622016559    1.27254144969391   13.37873006609126
H         4.11280022560455    1.69506717166121   13.50503657364541
C         5.30987226338215    0.93940467058873   11.89975307163962
H         4.47468098839418    0.33340668664013   11.56057375181387
H         6.22065375574287    0.36922588113474   11.73267426892298
H         5.33361928607927    1.84173572948215   11.29216556889172
C         5.19418058997415    0.00872078175031   14.23913916101507
H         5.07933367430748    0.25943960259449   15.30992870709276
H         6.12983511301905   -0.52578582260049   14.08103110528862
H         4.38080691348225   -0.65833502166612   13.96380725947846
C         6.40037677407207    2.47757760589285   18.96689619502031
C         6.45555074842532    2.58554607260625   20.38591389824242
H         6.68311898519052    3.61470732474568   20.66468665451518
H         7.22822225444100    1.92767237428379   20.78376871589335
H         5.49170197227460    2.30514057385728   20.81144678970866
H         5.68696937923836    3.21797535292772   13.51261974881711

