53
CSD_code = LUMSAO | q = 0 | S = 0 | Stoichiometry = C20H29ClN2Pd | MND = 4
Pd        4.01543890252014    2.56720952734024    7.77163859528635
Cl        5.33276791069047    3.43594251233958    6.20708111762391
N         4.45272892123895    0.46023051105353    7.29396010607169
N         2.82869072751511    1.48842374199631    9.24640131225999
C         3.64607691699282    4.45123555560466    8.45615214972456
H         2.62363463740699    4.50701155608465    8.85388287834482
H         3.77149026871739    5.22418259293005    7.69493945182422
H         4.37088686532485    4.64578107210422    9.26243681897779
C         5.20569246702134    0.07942054431295    6.26810536341867
H         5.74581697424991    0.87468940190390    5.76556349970318
C         5.28985605272248   -1.24117726399402    5.86123965362103
H         5.91533520945163   -1.51387018244829    5.02677013988750
C         4.54609044603143   -2.19285374564997    6.54181892551698
H         4.57308398197825   -3.23115847874579    6.24694653816130
C         3.75983992572456   -1.78931703562867    7.60778966980558
H         3.15812104164800   -2.50266966632752    8.15029375959318
C         3.74425762226996   -0.44650672920041    7.96631020786070
C         2.91720234827603    0.02091586504981    9.15499884907543
H         1.89871310929234   -0.37434798666385    9.03820631769169
C         3.52369062150759   -0.55791719978928   10.43994941649363
H         2.91159875662471   -0.29406076335225   11.29974946876570
H         4.53160208714288   -0.16865152847134   10.58420277372653
H         3.58439548072151   -1.64179699678376   10.38483665316252
C         1.51697478431783    2.03250865245889    9.40713480583718
C         0.64596735465053    2.04453306606593    8.30530740884384
C        -0.61227073910362    2.61036157695291    8.45409847266200
H        -1.28380364479623    2.64212603462505    7.61093600170252
C        -1.01486699270221    3.15344135787234    9.65793118216193
H        -1.99500804362782    3.59556272882002    9.75398336095980
C        -0.15346966827715    3.13682211678800   10.73484146177511
H        -0.47229530692687    3.56971019093347   11.67021429360855
C         1.11342698604514    2.57423948206232   10.63730624865526
C         1.04665030798547    1.52536665935466    6.93923869755281
H         1.98743080851287    0.97158123430774    7.00443583882360
C         1.29442621486661    2.70485404845163    5.98770271218207
H         2.17812875852354    3.27489524282795    6.32115975728105
H         0.43632232777036    3.37187639890379    5.95932865690455
H         1.48464946022190    2.33470070172545    4.98206551325284
C        -0.00101034918142    0.56728950045184    6.36617356525200
H         0.38727842363081    0.09001094814292    5.46912165697919
H        -0.91403732203162    1.09057566844602    6.09740876506439
H        -0.25191142490745   -0.20880065974009    7.08721259151244
C         1.99239205289464    2.60128464271759   11.87220099468109
H         2.93508880795879    2.07487462272231   11.69254738861399
C         2.35015325027067    4.04212832009351   12.24461923701294
H         2.99948027694030    4.05376526448222   13.11757327976753
H         1.45790731991284    4.61873268935450   12.47254316714317
H         2.86801034213308    4.52671395981579   11.42034267465460
C         1.30872346476509    1.88563893412357   13.04172303492815
H         1.00188460804707    0.88206920489113   12.75152492127238
H         0.42664903553849    2.42594937623165   13.37250533600922
H         1.99369251759865    1.80858955898269   13.88361785083681
H         3.43472511389784    1.81708317347270    9.99912745747186

