34
CSD_code = LUMWAT | q = 0 | S = 0 | Stoichiometry = C15H12Cl4N2Pd | MND = 4
Pd        0.70870954039070    1.40017420560736    7.02930717951204
Cl        1.03259788758594    3.47107593709311    7.75604959618548
Cl        2.89555451514219    1.34889778450363    6.65284382195682
Cl       -4.44841984061445    0.28636805690978   10.69088193026279
Cl        0.35134759442509   -4.97925166672834    7.70868214124919
N        -1.23443333880146    1.22452808658268    7.69102663024668
N         0.38210052207332   -0.61071600183934    6.69957237315540
C        -2.13429136474155    2.14100442616609    8.01539621476757
C        -3.14408707382513    1.86345058786772    8.95108556326839
H        -3.84288381600456    2.63940536857994    9.21920048869680
C        -3.23144072132236    0.61670262282057    9.52227363002818
C        -2.33855896121162   -0.40004975735553    9.11486280934125
C        -2.37515613810425   -1.73768830983652    9.56911952190415
H        -3.10669989407236   -1.98485776053770   10.32301234733707
C        -1.54904304009037   -2.71377443906013    9.09124694977414
C        -0.59644134439924   -2.39288992301484    8.06436130789837
C         0.25620901517101   -3.29198824282956    7.37488681368176
C         1.04983400245900   -2.84199991073340    6.34184853386671
H         1.65818187056327   -3.54110056773374    5.79052600923667
C         1.09070891691401   -1.48591164583522    6.00448902348921
C        -0.47725234694433   -1.03750802220334    7.65486698814170
C        -1.35003929257530   -0.03225013270780    8.18386836913721
C        -2.06640757197322    3.46452375318373    7.34130649455586
H        -1.51184967044359    4.16672348605880    7.96529557566471
H        -3.06318473263331    3.86038803789699    7.16376369085810
H        -1.51695201172639    3.37045546497054    6.40138583946355
C        -1.69059766782883   -4.08931339754935    9.66122693519339
H        -2.43293135833275   -4.08370095883290   10.45530249803307
H        -0.74716853576202   -4.43759556676806   10.07570685707145
H        -2.01066782943186   -4.79731678860564    8.89939544457236
C         1.89408709388328   -0.99758298290131    4.85388069210957
H         1.49476604181819   -0.04027154561923    4.50782234186999
H         1.89736521502405   -1.72612631247824    4.04701015444182
H         2.92124433538986   -0.81690388507141    5.17409523302861

