123
CSD_code = LUMZEZ | q = 0 | S = 0 | Stoichiometry = C47H71CoN4 | MND = 3
Co       14.38404361609904    1.49932108198276   11.68188347146349
N        12.73527562163851    1.11676169118973   10.80023446913572
N        12.94738652849535    2.38078342790712   12.55813289523061
N        10.71112972711690    1.72968528003445   11.94212775224564
N        15.97855228130369    1.48382049164512   11.46696979327096
C        12.07840909341687    1.74781282254638   11.76761086710561
C        12.32810294783000    0.78675004880642    9.50985034119300
C        12.43247504652796   -0.54844611283422    9.08358902532300
C        12.12121615754357   -0.86266056105428    7.77051121487646
H        12.20229015547942   -1.88264292159035    7.42780189484449
C        11.70815986289305    0.11581659705868    6.88706995684185
H        11.46572078919737   -0.14245869338131    5.86671575060465
C        11.62148406182270    1.43126121996338    7.30525788336230
H        11.31908783279025    2.18437003892181    6.59485352893272
C        11.92639223195668    1.79183777015278    8.60797659185810
C        12.93161208735009   -1.60635031919519   10.04242960610040
H        12.73759929179576   -1.26018318985751   11.06517531287709
C        14.44870077808784   -1.74635039664503    9.88556941560896
H        14.82944575784926   -2.52149195517499   10.54721147471950
H        14.93188936630730   -0.80211424853227   10.14425567115159
H        14.70187238076109   -2.00507428028706    8.85946546683715
C        12.24413703146059   -2.95987535980432    9.86117557620423
H        11.16159461226813   -2.84870381789076    9.82681411113613
H        12.49632846132917   -3.61568684348108   10.69253217087883
H        12.56889605150456   -3.44644541521819    8.94480010296036
C        11.91224405162749    3.23986774650191    9.05232494175950
H        11.53104966472637    3.28068203447375   10.07701877507778
C        13.34857181946716    3.77047139565161    9.07354281193676
H        13.94928751319963    3.18940383667800    9.78207700594542
H        13.36463477635132    4.81402124244393    9.38160440275251
H        13.79793364953267    3.68971098430768    8.08590155054040
C        11.02473783349696    4.14472641512850    8.19850141765855
H        11.45337551976296    4.29699741336064    7.21081145664032
H        10.93277059047324    5.11955378422799    8.67464983360642
H        10.02712090217071    3.72334603707793    8.08621375523362
C        12.81179714124395    2.75435712772976   13.89872441930179
C        12.61318805250937    1.80571332642070   14.91943686386675
C        12.60112424189030    2.24202450391010   16.23605671104788
H        12.46380026525766    1.53043180454092   17.03508567283682
C        12.77045829032778    3.57656604839964   16.55212447295520
H        12.75411333683375    3.89253683250379   17.58481682317415
C        12.97805100780956    4.50272615246507   15.54702281471296
H        13.12609952580561    5.53923688785749   15.80714049018960
C        13.00293396814761    4.11068141338470   14.21958147610800
C        12.50470316588191    0.33010848746791   14.59299300895779
H        12.01911183144043    0.22456831152535   13.61732276250957
C        13.91211215221204   -0.26761312198472   14.48684443365203
H        14.46926124435284    0.21128992598895   13.66499004390187
H        13.85706484163359   -1.33620373666367   14.28765788724765
H        14.46195065838153   -0.10955648796212   15.41236195606255
C        11.67596269462123   -0.46465209996745   15.60395895956346
H        12.21250895457120   -0.58748472628973   16.54166509429695
H        11.47042211506571   -1.45796104193903   15.20801408248108
H        10.72587906179238    0.02584348783587   15.80949873996425
C        13.28893550949631    5.09211984752418   13.10515330866208
H        12.79552798377961    4.72703370622314   12.19699115043962
C        14.79632819212467    5.09622807793648   12.83551933693664
H        15.33982743205073    5.40655977603684   13.72577610817898
H        15.03668822900433    5.77790043778938   12.02173756913983
H        15.11658694774708    4.08848408084638   12.56082362898795
C        12.78260940083605    6.50584708208238   13.38674643154236
H        11.74403256413417    6.49041813954807   13.71312843834348
H        12.84945301632703    7.10780072818558   12.48234903712013
H        13.37926874811101    6.99285202822911   14.15420099817471
C         9.97471084776394    0.58320892048237   11.41570775959225
H        10.74988245534783   -0.12495450518866   11.10838842764192
C         9.11971298115612   -0.14267890218227   12.45924468830656
H         8.22273254070742    0.43581296722478   12.68234426527680
H         9.68103987148479   -0.27989916689616   13.38408944998270
C         8.69886792126383   -1.49826269848750   11.89527048534063
H         9.58805972078679   -2.09895641612792   11.69087658438037
H         8.09792528896182   -2.03347494061343   12.63394079638471
C         7.89731617227051   -1.31755940891692   10.60899944742989
H         7.64313300422542   -2.29339471525267   10.19011161361732
H         6.96176873272465   -0.80153283371754   10.83937915598208
C         8.68278145107881   -0.50050983768459    9.58632668902399
H         8.07021068635576   -0.33212718894952    8.69826673706466
H         9.57284540046298   -1.04983046470848    9.27264846253661
C         9.10486076177334    0.84175644904578   10.17964222371853
H         9.66189862092084    1.41201447207751    9.43720627694180
H         8.21014182173374    1.40214609478738   10.44812628931693
C        10.09717282685763    2.87457219995110   12.61058786041326
H        10.91530435736616    3.58875940774518   12.73820505537155
C         9.51670591971652    2.62223100096682   14.00664881540241
H         8.58610635087592    2.05931261806234   13.94260462480840
H        10.22293319528520    2.05745591748203   14.61302859643544
C         9.23372601689435    3.96823572911143   14.67070458872336
H         8.83158229713798    3.80532052806447   15.67274277251161
H        10.17022416730426    4.52000177116182   14.77674687893501
C         8.24235259106462    4.77964340355214   13.84084996315801
H         8.08537218836949    5.75774483803901   14.30004421083605
H         7.27947478625654    4.26282020947971   13.82335856781429
C         8.74416134601287    4.95236127335593   12.40992846365850
H         9.65703791985667    5.55232196359807   12.41252232196359
H         7.99697693414163    5.48440668380834   11.81682862230667
C         9.03116976036778    3.59278926426088   11.77571754676585
H         8.10749265337428    3.01345388050922   11.76158915918914
H         9.37237287244253    3.72421149923405   10.74838811578963
C        17.15881575828405    1.98206735965482   10.89450239571664
C        16.87269199043341    3.09657858873160    9.86587810886559
H        16.22961431262804    2.69347957830941    9.08160234620620
H        16.34255467481032    3.91175977628663   10.36046740451465
C        18.18285357795660    3.60282467420575    9.26791739073213
H        17.95832057111083    4.39681628892576    8.54588115591447
C        19.07716419611670    4.15955412078958   10.37434345437516
H        20.00669515108230    4.54057823336089    9.94480284881661
H        18.57391136851823    4.98807826615071   10.87758896951621
C        19.38295995952878    3.05132525969772   11.38041738983488
H        20.02420055300913    3.44708267607251   12.17659329444774
C        18.08041058938378    2.54648943613851   11.99351826729999
H        18.27975887999464    1.75769244012454   12.72157341356800
H        17.56104971719517    3.35558460416936   12.51029498149181
C        17.89675524297029    0.83770468581705   10.16896688150963
H        17.24536538219033    0.43838449088758    9.38908586111090
H        18.09371578393616    0.03757669075253   10.88508738484777
C        19.20162771801770    1.35087478457897    9.56724206381729
H        19.71111368003954    0.52256055775810    9.06116713945729
C        20.09942452549316    1.90125322139416   10.67426017751258
H        20.33081766728036    1.11136287637653   11.39219877370899
H        21.04137533548023    2.25466839310891   10.24802968548107
C        18.90129421090638    2.45721157534359    8.55748619135835
H        19.83146455770517    2.81896553399214    8.11291150287617
H        18.27346146656438    2.06665162935289    7.75363438413656

