27
CSD_code = LUNBOM | q = 0 | S = 0 | Stoichiometry = C12H6N2O5SW | MND = 6
W         5.42892111696112    3.16450298526239    2.38023104604953
S         6.07076849745736    0.71672703123362   -1.74548377848235
O         5.11395304006519    5.19042969851061    4.73225824292882
O         2.97514505165009    1.58468032675880    3.53931614393342
O         3.23406733141986    4.84367528022213    0.89450094182848
O         7.85988776567463    4.90628890498579    1.42910794070560
O         7.58008956508383    1.64772069553895    4.09324052962897
N         5.67537605823370    1.65984656994541    0.64592771197695
N         5.84343491248460    3.28751218493286   -1.02978596358079
H         5.70176217602452    4.03286561417235   -0.36245130505710
H         5.97562845798563    3.49210512644984   -2.00328290458765
C         5.22859535791481    4.44261667028672    3.87367850130454
C         3.88610630802832    2.10753656542005    3.09472407353742
C         4.05602078285137    4.21039044447312    1.37771102893958
C         6.96780313959939    4.25127247155654    1.71999740777065
C         6.78698632139039    2.14948812066119    3.44525855237234
C         5.83965468641400    2.02282130534363   -0.59245506208622
C         5.71665265316881    0.28814565713685    0.78258293510121
C         5.92866421660855   -0.41292977861954   -0.41865264707469
C         6.00178177045281   -1.79193648509124   -0.46620210243303
H         6.16733795130681   -2.29951327784985   -1.40307499453825
C         5.85661519137904   -2.49156219890985    0.71727386998240
H         5.90985144930446   -3.56894137594195    0.70866116134406
C         5.64193126224180   -1.81800722989300    1.91449736262357
H         5.52864628244325   -2.38171960045488    2.82765478104576
C         5.57045172245250   -0.43956343123232    1.95970240242787
H         5.40186693140134    0.07304772510322    2.89456412433991

