28
CSD_code = LUNCED | q = 0 | S = 0 | Stoichiometry = C12H7N3O5W | MND = 6
W         0.16589781017543    0.86846043433093    2.68002033966022
O        -0.11886188484360    2.79683214164031    0.24086478621733
O        -2.02807172480491    2.60370882843806    4.10302510254884
O         2.52977239496769    2.69162728744241    3.64572655193637
O         2.33418605641131   -0.72648354596750    1.06381498226249
O        -2.20937350735584   -0.84248076611006    1.54013456946438
N         0.39347115466903   -0.53742837092043    4.45449563381208
N         0.47222633892569    1.05964003377834    6.20150401586212
H         0.50242801510174    1.79138591281904    5.50446763173681
H         0.88913766428274    1.26184726694436    7.09393863326875
N         0.72104668299029   -1.28528104954349    6.52502036179709
H         0.82544199409427   -1.27451317582672    7.52489901773077
C        -0.01881703277720    2.08334421315755    1.13152836132213
C        -1.21768121041922    1.94562010732547    3.63412835656458
C         1.66292273576187    2.00889595834504    3.33388779611962
C         1.54054688312686   -0.18743824587337    1.68195105168206
C        -1.33311555497132   -0.25879929727453    1.97974629588747
C         0.54483938616841   -0.20216865330059    5.71758211897596
C         0.46461834255104   -1.91588577493255    4.41190947556352
C         0.67085060229009   -2.40639634867395    5.71720350862916
C         0.79214638972711   -3.75557807461809    5.98873866501730
H         0.95172380170434   -4.11736906271120    6.99270512799884
C         0.70040000537749   -4.62068731075681    4.91302455066580
H         0.79074272327066   -5.68299544739100    5.08011154462883
C         0.49429343908339   -4.14930318977278    3.61847984749244
H         0.42836814544547   -4.85908257914681    2.80820119141330
C         0.37248307930632   -2.80001105586142    3.34528506099405
H         0.21137726974587   -2.44356023553991    2.33940542074867

