28
CSD_code = LUNCAZ | q = 0 | S = 0 | Stoichiometry = C12H7CrN3O5 | MND = 6
Cr        3.30087797004463    6.59065168142550    2.54866615291938
O         5.22319196226488    6.62621857206812    4.84006364056687
N         1.87219275903528    6.60756738715508    0.87011087463014
C         4.48706308981415    6.59699339129659    3.95139901530880
O         5.81338544268770    6.52232682127862    0.89550230090924
N         0.43163599856998    8.34516902795109    1.59400972867114
H         1.09444461318328    8.56368912487649    2.32561557916349
H        -0.15328658993223    9.09694635615370    1.27026135566346
C         4.78813215756779    6.53113596659512    1.41465124099411
O         3.35465172304807    3.61516880175700    2.99096303340797
N         0.16238886961661    7.16001951339026   -0.45020678196729
H        -0.67349447220732    7.62195148527309   -0.76487336583959
C         3.26306167115404    4.72563023481405    2.71143837836745
O         1.31212591076330    6.68124357830739    4.80094777922534
C         1.97018793281369    6.65309984031929    3.85552069371591
O         3.76964412705854    9.55200825543734    2.76056274124231
C         3.50200741816187    8.44194218851809    2.58478840566681
C         0.84029207402710    7.40972838693752    0.70512960682678
C         1.88033620140394    5.77176937256598   -0.23245866342366
C         0.80165165606053    6.10586572547107   -1.07589012816375
C         0.55399883689427    5.43993145748492   -2.26117685716644
H        -0.27704728312573    5.70668311794227   -2.89550079674699
C         1.42118638804490    4.41529737189636   -2.59520290215064
H         1.26440776828075    3.86783273306758   -3.51170347246987
C         2.49368641636747    4.07653665559030   -1.77274819746004
H         3.14725572609459    3.27187368925305   -2.07272470865562
C         2.74177471268498    4.74176584119484   -0.58689342051430
H         3.57494691962381    4.47525342197987    0.04494876727909

