24
CSD_code = LUNDON | q = 0 | S = 0 | Stoichiometry = C9H6ClCrNO6 | MND = 6
Cr       -0.39780480170354    1.58127546315159    2.48282475078154
Cl       -1.67166305905960    0.99582554716953    5.87809428892853
O        -1.64361018845892    3.48715940878650    5.02620391355903
O         1.39275473560678    1.98536572014815    4.86892295836418
O        -0.18910009134681    4.56570928032361    2.10111254521775
O        -1.32067514743232    1.33660749472974   -0.36933329775213
O        -0.38341815920486   -1.39914328722380    2.95277298703455
O         2.25311902402170    1.37391407699147    1.07514826379251
N        -3.45632183263584    1.37954860830177    3.26535251699654
C        -0.41976317531783   -0.26843543581252    2.77041160458679
C        -1.85139525862242    2.37117684424605    4.67531651539739
C        -0.32244325914569    3.44115244426133    2.25550306649329
C        -3.89616770554896    0.59982497766058    2.13298889420302
H        -4.55021237648045    1.19673427648523    1.49383357747368
H        -4.45419738817805   -0.26870635336994    2.48638151796341
H        -3.03980015559505    0.26194502877555    1.55378090739882
C        -4.51339758208049    1.65150640052635    4.22127642680709
H        -4.22513403818450    2.45751399713824    4.89233181592537
H        -4.71985017741041    0.75868983583871    4.81571742841055
H        -5.42186482894241    1.93745800010327    3.69070864377395
C         0.61748139051010    1.81790842365495    4.04459442349321
C        -2.21514912906336    1.74276433055915    3.43173802155401
C         1.24091200361863    1.44522378868658    1.61338017301200
C        -1.09759879934634    1.41108112886717    0.75573805658491

