85
CSD_code = LUNHAD | q = 0 | S = 0 | Stoichiometry = C22H52Cl2N4NiP2Si2 | MND = 4
Ni       13.24485771217625    2.90358104521632    4.31343782209631
Cl       12.15705459857689    4.61829678658000    3.67737599043072
Cl       14.26135804407289    3.80770475414679    5.95018919053718
N        15.24220752645969    0.56304691603697    6.00061864323488
N        16.08389036378419    1.44603034706754    4.05580335638738
N        10.48221925335491    1.51386077560196    3.48318981975725
N        11.32996810804732    2.19116245730763    1.45994517279124
P        14.50566568518644    1.22207584093810    4.62940783473927
P        12.05892202283195    1.80338688963788    2.93479253046852
Si       16.85241466774254    1.18117292209248    5.61619592374867
Si        9.69942635864148    2.31940580301918    2.12908829252250
C        17.48787305471935    2.71044439516346    6.55449914420464
H        18.26658663610596    3.21703418308970    5.99184889622900
H        17.91566942110904    2.43521953768229    7.51338221727315
H        16.68044975976241    3.41957974781187    6.72531769285557
C        18.15958848532315   -0.19663422330356    5.52577518635336
H        17.78105012361980   -1.10142025277574    5.06255950776706
H        18.50780996632083   -0.44714549783897    6.52031321688331
H        19.02163011646219    0.13523343741936    4.96008513129638
C         8.97660643891170    4.05311079740809    2.43661204462321
H         9.74592684639086    4.73108912286415    2.80064942975121
H         8.18156027570837    4.01853603330633    3.17574706179247
H         8.54991365447228    4.46890457147176    1.52926841622077
C         8.46070560345898    1.17338023450151    1.25308699643336
H         8.10053772191123    1.63910798829119    0.34395062083033
H         7.59805963567643    0.99422900726145    1.88320967882213
H         8.89247250478017    0.21307090492897    0.99257482456892
C        14.68058107520374    0.12032149700891    7.26833273574936
C        13.66703905442610    1.12610519260744    7.81143625015237
H        14.15740007916478    2.07204825556629    8.02449825118178
H        13.20322975191325    0.74717806961347    8.71926607034475
H        12.89041741866533    1.31379263240347    7.07334754523735
C        15.82004566291429   -0.02752895218228    8.27789717977715
H        16.55118361025334   -0.74598136798660    7.91938396229346
H        15.42561990402437   -0.37457369229949    9.22980361432002
H        16.30849595756606    0.92836277028527    8.43439662017576
C        14.01629238693257   -1.25422609146736    7.09446546194375
H        13.09537650902933   -1.17517102869526    6.52439254630217
H        13.77407101124420   -1.67476103197412    8.06756475366411
H        14.69619212241121   -1.93097175115202    6.58165112334165
C        13.87879998779243   -0.27102814974020    3.65753013464837
H        14.75627377293279   -0.69148311877174    3.16359260930066
H        13.53904385328904   -0.99761520178427    4.39432011265991
C        12.77267579728775    0.07399553024640    2.67662744227437
H        11.92485713054234   -0.60910548236427    2.74927335328064
H        13.13283333519590    0.03967522331038    1.64935598765367
C        16.50156105899487    2.24259102586186    2.91773828970437
C        15.79602615249736    1.70212132947180    1.67344787264338
H        16.07725886687243    0.66628759148765    1.49436681941895
H        16.04912942141721    2.29457214561791    0.79709739777371
H        14.71954096879799    1.75360269158269    1.83893783579795
C        16.14662812889395    3.71935511639992    3.10132587439412
H        15.05766627168409    3.83656869638117    3.21970742054737
H        16.45704597546341    4.30352602953913    2.23793909741479
H        16.62225829364171    4.11567910703757    3.99447515775252
C        18.01443142669446    2.09246742212907    2.75160458828451
H        18.53178244757192    2.50567760408916    3.61232987868769
H        18.34330109136805    2.61869878449774    1.85900816645246
H        18.27689621254241    1.04201958755959    2.65902674516192
C        10.04811558556533    1.32902448257158    4.85500288671701
C         8.54609586734820    1.04118367977940    4.85286402784048
H         7.99767648842794    1.89988265070272    4.47729593243835
H         8.20874976885746    0.82448470446232    5.86334143470104
H         8.33112360793908    0.18594620388723    4.21786746186467
C        10.33463261112476    2.56531240177236    5.70942775811942
H        11.41532130193077    2.77916459718676    5.71855925697247
H        10.01266099440542    2.41052496148900    6.73679460155942
H         9.82756743114023    3.43500959565985    5.30007162731356
C        10.79601207517513    0.12731198429491    5.43369784708253
H        10.56383930401899   -0.77435343095174    4.87047431668899
H        10.53028177867045   -0.02835792284902    6.47689700668771
H        11.86646985919159    0.32239927895981    5.36457342071115
C        11.88880547699382    2.73337401125776    0.23029992101219
C        12.83818267415411    3.89616726317823    0.51420023949614
H        12.29550850464722    4.71720975748354    0.97469371995169
H        13.30299943676727    4.24169489011332   -0.40632153792254
H        13.61845202792653    3.58528818945338    1.20536977370096
C        12.62613218500745    1.62808738688826   -0.54133527682844
H        13.55212431721167    1.35413297070497   -0.04465285915091
H        12.87169110162085    1.97547498630702   -1.54205915910788
H        11.99172126328683    0.74828205837780   -0.62366776025530
C        10.73859793125118    3.23556394760432   -0.64395191774823
H        10.05149172750678    2.42458303191147   -0.86625563220591
H        11.13126846260885    3.62810087358060   -1.57873217213669
H        10.19989889436252    4.02824248696496   -0.13582045847145

