51
CSD_code = LUNHUX | q = 1 | S = 0 | Stoichiometry = C12H32ClMoOP4(1+) | MND = 6
Mo        2.15505179083071   -5.94432408987894    5.80351209943573
Cl        3.51385928200668   -4.05867044511496    5.80344506915272
P         0.96455653899412   -4.87299965544708    7.60783728253868
O         1.20688646194142   -7.26950352219577    5.80354291830530
C        -0.79362105441175   -5.30097097541984    7.77202748457954
H        -1.15136245275211   -5.06621049357058    8.77547840143840
H        -0.90499022568607   -6.36747595478942    7.57165912427204
H        -1.37356988407251   -4.74079833081504    7.03943438305121
P         3.60651457904505   -6.58219470072831    7.61339968334698
C         0.98457097946781   -3.06828145812582    7.84645742242412
H         0.48979255874995   -2.81372055217711    8.78404124270513
H         0.45963439750834   -2.59211869429326    7.01834358361255
H         2.01382070665202   -2.70830724457785    7.85817911890666
C         1.64454912146113   -5.49403842230853    9.20809885441921
H         1.33769870387409   -4.83876771797835   10.02987871941323
H         1.21227734740905   -6.48835393134500    9.37217778827374
C         3.15989267726770   -5.59533096940790    9.10664644699940
H         3.59521690325044   -6.05671618254429    9.99953493131948
H         3.60343452019526   -4.59949856732055    8.97867894690592
C         3.31680173414582   -8.29651031215332    8.14313108015141
H         3.76953560538026   -8.49071037348031    9.11635427308930
H         3.75238523890862   -8.96155773269341    7.39670898558960
H         2.24211770897013   -8.48169558350919    8.17516133803558
C         5.42074893660627   -6.43905292659921    7.63968254756121
H         5.78377016087022   -6.58951161016121    8.65710976966916
H         5.71071902721883   -5.44757452224953    7.29032263905326
H         5.85580697478839   -7.19474959012594    6.98683067747016
P         0.96437069483816   -4.87285251505487    3.99903240232260
C        -0.79375733662626   -5.30099363444848    3.83497770293423
H        -1.15146956369801   -5.06623621105739    2.83152280323727
H        -0.90506743512803   -6.36750719479244    4.03535316488495
H        -1.37367811638816   -4.74080988301982    4.56758445924879
C         0.98456203733303   -3.06814008088655    3.76056070014863
H         0.48980191317946   -2.81359836555619    2.82297146008993
H         0.45962685572182   -2.59200461447264    4.58869137704854
H         2.01384007528319   -2.70823568194607    3.74884650012164
C         1.64454757813765   -5.49405234510387    2.39891227631012
H         1.33770407675078   -4.83878950593875    1.57713365604755
H         1.21229627632655   -6.48837676504837    2.23481330282467
C         3.15989615626730   -5.59533633731971    2.50036000513844
P         3.60673849377464   -6.58228251587822    3.99347913619578
C         3.31677011004846   -8.29657819364743    3.46385845234829
H         3.76948057775108   -8.49078752642703    2.49063215401689
H         3.75235052316481   -8.96161628379989    4.21028940258861
H         2.24207045810603   -8.48171582434608    3.43185383188695
C         5.42094193234215   -6.43909594562692    3.96733426999665
H         5.78391190646610   -6.58954758915697    2.94989567086800
H         5.71085304423428   -5.44760211815976    4.31670306365196
H         5.85595026658691   -7.19481328309759    4.62019646471800
H         3.59523385677683   -6.05668145702666    1.60746420968663
H         3.60342728013158   -4.59950156917738    2.62835872196501

