103
CSD_code = LUNHIL | q = 1 | S = 0 | Stoichiometry = C30H64N4P2RhSi2(1+) | MND = 6
Rh        6.50556504142212   13.04030916088259    1.61362636268090
P         7.74122729312949   11.32258732952340    0.78543880336579
P         8.27717504226159   14.35520119853239    1.09536497146409
Si        7.20058824069583    8.88506698381267    0.10889740606828
Si        9.11420835173865   16.75457590654488    1.57372374955360
N         7.18436514844752   10.49959643453539   -0.59158150623187
N         7.89981500007256    9.78093005269397    1.45887671735743
N         8.24706959047583   15.85985629409888    0.32331547872993
N         9.03357251501228   15.18514841011428    2.36511104321465
C         8.33553024508165    7.64849070184905   -0.77696766892188
H         7.85223962174638    7.26520126739898   -1.66872050454380
H         8.54003220618705    6.79487919582506   -0.13955619432789
H         9.28625648750890    8.08337514854819   -1.07033402865850
C         5.50358113800445    8.11857137526145    0.51304400740186
H         4.90413264135791    8.73700308637128    1.17500699813708
H         5.63100714242971    7.15412117294293    0.99290172946715
H         4.92872175385465    7.94467698809640   -0.39062210395176
C        10.86041804568933   17.33932881283360    1.09919381971636
H        11.39265797857056   17.70057522318800    1.97279023688938
H        10.80907153645953   18.16646653154703    0.39869935604400
H        11.45922845191514   16.55444283930299    0.64558878587150
C         8.09298416333708   18.12378847720677    2.40696980060080
H         7.09767445473888   17.79389095816494    2.69102375402850
H         7.98216535151451   18.97495828879754    1.74471687944898
H         8.59435502570384   18.48277360763486    3.29890813543712
C         6.65277345408960   11.01231050450219   -1.84308356693500
C         7.72227626685431   11.85709118325533   -2.53930255050829
H         7.98599881426362   12.70172524599412   -1.91092929109979
H         7.35434059681301   12.22988598112348   -3.49152086890825
H         8.61160812240518   11.25871362029869   -2.72100753843155
C         5.40154362307053   11.85919195306547   -1.59374307821329
H         4.57106161815393   11.22241306288657   -1.29964816710645
H         5.12101776323669   12.40212403535955   -2.49245477840673
H         5.60036790882089   12.57705879570896   -0.79086951640028
C         6.29454695171960    9.83617722625629   -2.75117301590780
H         7.17781153375294    9.24396756190955   -2.96823123304775
H         5.88718282923861   10.20831852380319   -3.68750220328421
H         5.55288425468720    9.19840075771874   -2.28077201952928
C         9.49337415150427   11.87965034088441    0.39938514016845
H        10.09975218196611   11.55614516896280    1.24676079877849
H         9.82916122972227   11.31973269733589   -0.47583526496100
C         9.61664996247470   13.37896331673429    0.20467094206900
H         9.51661376097979   13.63327590015922   -0.85015640174155
H        10.58277724717584   13.76082429539166    0.53997588948441
C         8.53298659216219    9.28930366715965    2.67219905202562
C         9.92183272247783    8.72340038657293    2.34385232789014
H         9.83987739023125    7.94985617414142    1.58724751346693
H        10.37056451733213    8.29242800880248    3.23489742760312
H        10.57897301524620    9.50276321208927    1.96785802242571
C         7.67241709299118    8.16773791512451    3.26069966431523
H         6.65396231935060    8.51171418482813    3.42094501085325
H         8.08396970020146    7.84134849821439    4.21189166542692
H         7.64707780528795    7.31902322260294    2.58369710383567
C         8.67710922326406   10.41045516245404    3.69844277286305
H         9.14136805918828   11.27773676687170    3.23774329081963
H         9.30005778617069   10.08137932541448    4.52612611347640
H         7.70882637425416   10.70065325941195    4.09542730361466
C         7.85212389148576   16.26695947613756   -1.01669826083804
C         9.04430600332232   16.19055713299072   -1.98321233816833
H         9.91402209760661   16.66639061581817   -1.54048151674672
H         8.80147539230115   16.70355971252313   -2.91014370964227
H         9.29413634956905   15.16076862254038   -2.22334839666889
C         7.37330434009199   17.72018987617060   -0.95938246734734
H         6.60522630292270   17.83597206732362   -0.19962848213538
H         6.96111719176870   18.01195465857544   -1.92164400907800
H         8.20139394256871   18.38132824926447   -0.72133967821271
C         6.71725142700281   15.37867892837461   -1.53178229134363
H         6.86000855256241   14.36212039480598   -1.16760525338852
H         6.70599493732171   15.36657529438475   -2.61833068410795
H         5.75202404141992   15.73993347487409   -1.18740878912135
C         9.54411930585359   14.70913404741472    3.63954472383983
C         8.48475028377662   13.86676720916127    4.35669168489363
H         7.74643707650757   14.51108627779852    4.82618398982110
H         8.94338591521339   13.25126409631296    5.12599785533075
H         7.97882106757740   13.21669051283817    3.63284345986729
C         9.89271915681018   15.91493693033408    4.51299586480854
H        10.67632355246150   16.50757115648949    4.05104295795691
H        10.24172776557013   15.57470825151876    5.48437067801169
H         9.01912580064161   16.54277656634490    4.65839069256383
C        10.81528346158118   13.87959520412568    3.42138223543194
H        10.58621069177335   12.97294964324420    2.86882930071954
H        11.25428780162314   13.60088689064086    4.37576538176353
H        11.54491421906895   14.45918877927749    2.86107910315277
C         4.59140241887099   11.89355221922974    1.72853316362512
H         4.68949884959800   11.08068467313877    1.01406288095046
C         3.38571470912600   12.78230359838650    1.53227943696653
H         2.72938276058110   12.32607578175575    0.78929959190436
H         2.82769936488419   12.82907065492036    2.46827145185786
C         3.74650600284217   14.20221846413817    1.05205675877946
H         2.96138680018266   14.90258697605095    1.35634639024524
H         3.77469804453105   14.21176697067386   -0.04039013892737
C         5.06965487113541   14.71140746068297    1.56695159678485
H         5.51979974085227   15.48621415222860    0.95009717931815
C         5.51860282892558   14.61041182259336    2.86167728384994
H         6.31486409436894   15.28912369093289    3.15753397340238
C         4.71782528077867   14.01490798621510    3.99529292116003
H         4.97941507978138   14.52909899737874    4.92175151740151
H         3.65885196570623   14.20230284823488    3.81354813346537
C         4.96854745983856   12.50659221906632    4.19097399004328
H         4.09331593232543   12.04767874180643    4.66332928653242
H         5.80728440231657   12.37183253904566    4.87836497216381
C         5.27052308027704   11.75947858018262    2.91576873425410
H         5.82662840822263   10.83536215331511    3.06323225138625

