51
CSD_code = LUNJIN | q = 1 | S = 0 | Stoichiometry = C12H32ClMoOP4(1+) | MND = 6
Mo       12.79872439523798    5.78893974327799    9.18238423132567
Cl       13.54819088151017    3.81097200462752   10.15211721832070
O        12.27069400218967    7.17417523668921    8.50657246177207
P        12.59251516662977    6.48773950432507   11.47868323301598
C        11.69955052364943    8.06392493614273   11.62046639424757
H        11.83064912099354    8.50330020715792   12.61013381235062
H        10.64108733080663    7.87376507709681   11.44000216229902
H        12.05793544055791    8.74477555240929   10.84700373753142
P        15.04661230815378    6.59926151733496    9.51016176279184
C        11.92050579592941    5.49985592021562   12.85169317650789
H        12.15966355027983    5.98350608125275   13.79950895339800
H        12.35967893594602    4.50200062910153   12.82874062162623
H        10.83894477843705    5.42118814146664   12.75002265824638
P        13.20045906156709    4.68235547865848    7.07662577250216
C        14.26991403302360    6.89234778412694   12.13285405449730
H        14.17661070691020    7.50074961388152   13.03871349088120
H        14.74933714542662    5.94221590781555   12.40106600994257
P        10.76477250272290    4.51369485088907    9.05226006738928
C        15.07310209468790    7.60734386584900   11.05551317581602
H        16.10548447194424    7.78710506747095   11.37313837630326
H        14.60653844385193    8.57003750127994   10.81429469854156
C        15.66177395876357    7.79248064249587    8.28543848827654
H        16.50783045274151    8.35105298469998    8.68797374869533
H        14.84727999245895    8.47260868984968    8.03268227802677
H        15.97304200228920    7.26110571455630    7.38648597439705
C        16.45780273199495    5.47536744431474    9.75285340248194
H        17.35012908167893    6.05245361564638    9.99659796389729
H        16.62949628699724    4.90923473793618    8.83760039057906
H        16.23684760505126    4.77242469472918   10.55655541966472
C        13.48211166554662    5.78247368119756    5.65880895555221
H        13.33506088668912    5.24273365458789    4.72233162512876
H        14.49819161659640    6.17299683513935    5.69882742364689
H        12.78206030092377    6.61616717044446    5.72868357488384
C        14.48658228568246    3.40801950236279    6.88300622915148
H        14.41053210051111    2.95188030012945    5.89571527649622
H        14.37058886549147    2.64653040073266    7.65503417867353
H        15.46677570942144    3.87258574723316    6.99203784438516
C        11.66737338871678    3.79282689247934    6.55407989480104
H        11.01349084356192    4.53530998718374    6.08167902585414
H        11.91127708180563    3.02253165241222    5.81543331876837
C        10.98013166742484    3.19982545552631    7.77615227197072
H        11.60222001094851    2.41454214928052    8.22465239025328
H        10.00633387671293    2.76804248811960    7.52126860664482
C         9.37571460147759    5.49600481513887    8.41192134860538
H         8.54920612420156    4.85561711643596    8.10095984735244
H         9.72445350131641    6.10586345275614    7.57736881369310
H         9.04133166396486    6.16708466557379    9.20367812478849
C        10.00610407166623    3.55938362109281   10.40359015337808
H         9.22416785731326    2.91407558484038   10.00124000302691
H         9.56909493666418    4.24373721509172   11.13002473510660
H        10.76872414092902    2.95048446694929   10.89006262250802

