115
CSD_code = LUNKAH | q = 0 | S = 0 | Stoichiometry = C54H56N2O2Zn | MND = 4
Zn        5.59234139119507   17.56217593969546    7.12035225947415
C         4.37484170807737   18.66348497860038    9.60315391472136
C         3.81490317417700   17.50264826956958    9.03281031647259
O         4.51686139198079   16.69525768287021    8.28721450472487
C         2.44267677936428   17.16887164147704    9.34243343856858
C         1.68859476004149   18.06937718770618   10.03466406418946
H         0.65696589615125   17.85719541404032   10.26658374810978
C         1.33963364029287   20.27707164586441   11.05436247057664
H         0.30663723562955   19.99669758783842   11.20326840653943
C         1.78723939592826   21.52283617488142   11.43101390238684
C         3.13288333257261   21.82967425947053   11.16907888049074
H         3.52311270154990   22.80482388606180   11.41118174406068
C         3.98092904258916   20.92061744861534   10.59380930201022
H         5.00097967784895   21.21167114686078   10.38839912304406
C         3.54423849467462   19.62944406180523   10.24258895229696
C         2.18068487886055   19.32874553591514   10.45104565704042
C         5.81567489034115   18.87353152760452    9.57739844659254
N         6.47563626896785   18.73577484236457    8.43162940577018
C         7.78678092867094   19.05145156786124    8.35919401013756
H         8.23004946926821   18.94829930225001    7.37836612408531
C         8.50398223055637   19.50309479007448    9.42328410632231
H         9.53798054684211   19.78989182706573    9.31362634094353
C         8.59335757792558   19.89238689143505   11.86487472106074
H         9.63163990070290   20.17795087716865   11.77841998995267
C         7.97540647790658   19.84844590374137   13.08493817946500
H         8.51825625680544   20.11282499232107   13.98044753115167
C         6.64063864749571   19.43342813947520   13.18319501908129
H         6.17732687779184   19.36324612051851   14.15584924132216
C         5.92573570532783   19.11138698123232   12.06081683904298
H         4.90354287322259   18.77855481013631   12.14501428914473
C         6.51951415264073   19.19314986415177   10.78575403834324
C         7.88933452335192   19.54532449503327   10.69687265438933
C         1.87483569137940   15.83650910016246    8.86977682362750
C         0.43713368621318   15.60710900180051    9.34998176577201
H         0.10304337223997   14.62759411990034    9.01374723750668
H        -0.24332423196929   16.34983270430590    8.93901418144495
H         0.37688355659360   15.62710903308930   10.43587811775750
C         2.74124290619486   14.69743242240207    9.42320029022664
H         2.34877224588703   13.73685013691377    9.09609177662607
H         2.74159500755801   14.72057336814396   10.51160322726902
H         3.76262397775838   14.79515199731815    9.07036807156476
C         1.86935783997684   15.79295931487264    7.33520406031657
H         1.45511821704635   14.84671347303156    6.99323255320669
H         2.87888202061450   15.88608617904912    6.94491404049525
H         1.26004392149027   16.60193378748253    6.93446750527865
C         0.82883410783183   22.50949200616048   12.08115515684240
C        -0.31870866215976   22.81029070338272   11.10658288363654
H        -0.87674135402369   21.91021110153466   10.86402137530907
H         0.07389235297340   23.22729126878212   10.18135666100663
H        -1.00632746456302   23.53017307994712   11.54593971417810
C         0.26709364591561   21.88769791867278   13.36747606666887
H        -0.27758537778917   20.97130230659498   13.15850700160017
H        -0.41154888468868   22.58366006203572   13.85655798390683
H         1.07672203073522   21.65331334079812   14.05564861341428
C         1.50167738554035   23.83476328726837   12.44863128921959
H         0.77429678656904   24.49129226992230   12.92245002350250
H         1.88203380965363   24.34017582956620   11.56388385088344
H         2.31890950008719   23.67767292662867   13.14898456420286
C         6.72588164195382   18.75039016060058    4.63534795058642
C         7.36665956476503   17.63032603493878    5.20322223762761
O         6.72415125213478   16.77614013626746    5.95062427539437
C         8.75665634748280   17.39265224643565    4.88862924713772
C         9.44334831856019   18.34231325806219    4.19075902107837
H        10.48622919264012   18.20140283761820    3.95500050144221
C         9.63989212373841   20.56314696124405    3.15955006389019
H        10.68515421767917   20.34477271657792    3.00672424622480
C         9.10462119690709   21.77009425604525    2.78360743304372
C         7.73942266715811   21.98494653546535    3.05594433205994
H         7.28975429311727   22.93530491687775    2.80950981168737
C         6.95694216852674   21.02773032600208    3.63879012842763
H         5.92112019922772   21.24941189466510    3.85138078412026
C         7.48503176985696   19.76918029521755    3.99046333233479
C         8.86373795066418   19.56288975481645    3.77386394755593
C         5.27406900711472   18.86058894393399    4.66622251961583
N         4.62860654728228   18.67694078064588    5.81379929333121
C         3.29916712683300   18.90237255849093    5.89036600609551
H         2.86669544048556   18.76804120651834    6.87223674562125
C         2.54972513813592   19.30571180557049    4.82908178352662
H         1.49907983259994   19.52189581219411    4.94240607337048
C         2.42672540820416   19.69110697984324    2.38825377680449
H         1.37179736387684   19.90578772039124    2.47818585023671
C         3.04251192772047   19.69036347554597    1.16630433004926
H         2.48035522962172   19.91862326293204    0.27277209967073
C         4.40174944889365   19.36571058820439    1.06339972666242
H         4.86582586748981   19.32807296496930    0.08933368544830
C         5.14009798590250   19.09109565977181    2.18318406933932
H         6.18197120658284   18.82747950377124    2.09533669216582
C         4.54625902275412   19.13189175961598    3.46021295383436
C         3.15608915954879   19.39080345993752    3.55368500931780
C         9.41815837893712   16.10395776190157    5.36079033462076
C         8.63213278607893   14.90659854069850    4.81033089625215
H         9.09094875459611   13.97604549618679    5.13789286416821
H         8.62844011997911   14.92832735814963    3.72191991870178
H         7.60698956921937   14.93356578612119    5.16478440549039
C         9.43074410476722   16.06157666402810    6.89533719637098
H         9.91064239581434   15.14656599555471    7.23647494151947
H         8.41827360944583   16.08450908389471    7.28843521079975
H         9.98356665618008   16.91105087626994    7.29414365781326
C        10.86715545087461   15.97577212241117    4.87689815095838
H        11.26955130082202   15.02185274806999    5.21189741328034
H        11.49507123526818   16.76414212520612    5.28649048781643
H        10.92329603525603   16.00009892653740    3.79089216906633
C         9.90946556377459   22.87404251439339    2.11733094387366
C         9.28018036432482   23.19962862174622    0.75554257301843
H         9.84796693806089   23.98272018571873    0.25700243918651
H         8.25405875769378   23.53993391968294    0.86404901003466
H         9.28044736092552   22.31546555036621    0.12127955356118
C         9.88803437548760   24.12169839921301    3.01169227267241
H        10.47769728074588   24.91717594286810    2.56044044613234
H        10.30883158659510   23.89065551664664    3.98821908055894
H         8.87579688586921   24.48903720795630    3.15615528916572
C        11.37019738733775   22.47857424112878    1.88517959676763
H        11.89494994822256   23.29708195213796    1.39622412901902
H        11.44038612921156   21.60299447007619    1.24400172351129
H        11.87345149063907   22.27221264603746    2.82688091033623

