83
CSD_code = LUNLUC | q = 1 | S = 0 | Stoichiometry = C22H42BN12OPRhS3(1+) | MND = 6
Rh        6.45577993042938    5.29116469298843    8.77575299909318
S         7.41558707052438    4.76616895906629    6.61305585488846
S         4.46773627722247    3.95072237616222    8.35397893009709
S         8.55800907649661    6.17035153638598    9.62418782894030
P         5.56752491629913    7.45880499463307    7.95954271696490
O         5.55491135186077    5.14428443589425   11.60738763156952
N         8.00050847305874    2.74987425093196    8.26174413937847
N         8.63456717680471    1.55561327711972    8.27688089737499
N         8.77255149966145    2.41706421901253    6.25947003622655
N         6.12951121178476    2.48081564435131    9.86334767648845
N         6.16605817195921    1.34506864943810   10.58336293898894
N         4.16246984768467    1.58042366920753    9.70887673486886
N         8.29539050469045    3.66594626375767   10.54912953653925
N         8.82932286532809    2.81565884345843   11.44431719719397
N         9.90478755598961    4.73123955500807   11.53842599834575
N         6.69752600060754    8.65808567942373    7.60042541737911
N         4.72626421597561    8.28092579367888    9.19204942247717
N         4.32491306672296    7.39807593985879    6.81810169483346
B         7.26711927661839    3.41332245020838    9.44590017909214
C         5.84482780921499    5.34840368493966   10.51691356901352
C         8.08188869791605    3.28422393458610    7.03947154378513
C         9.09763200968763    1.36248826526984    7.08378897241646
C         9.85781224618479    0.17339264499150    6.64859553360369
H         9.97942000587586   -0.48998462579574    7.49896410637593
H        10.83778077037643    0.45867302561869    6.27048263779325
H         9.32444822009402   -0.35306758542973    5.85830227525356
C         9.12564830488501    2.63704989967924    4.87831005374199
H         8.29712016414636    3.17456822070788    4.40947425025783
H         9.24219967125377    1.66472747687850    4.39622988145849
C        10.40601085798066    3.45672803963108    4.76190466407674
H        10.27081133114525    4.43060445517488    5.22619014632378
H        10.64934866180970    3.60350712816548    3.71411293314931
H        11.23800006759905    2.94914258874610    5.24471247162767
C         4.91518022734035    2.63720466716967    9.32944592466137
C         4.99003884938595    0.81068021888218   10.50082365498359
C         4.57953749498652   -0.45077110158219   11.14864202486067
H         4.28762243616333   -1.18797918466799   10.40167854100346
H         3.73717796141702   -0.28635147151856   11.81842462654449
H         5.42111622487612   -0.83425272898406   11.71677138265051
C         2.76430207193907    1.39305125768618    9.40441065856449
H         2.54621603471150    0.32460287291243    9.44856188949208
H         2.59629724004649    1.75348555580449    8.38623855471690
C         1.88439745799177    2.16640015663371   10.38058351068242
H         2.05869100985902    1.84008546879860   11.40333030796332
H         0.83947912089266    2.00240305792137   10.13624764611312
H         2.09348895023918    3.23128598392704   10.31117253705928
C         8.94299290805190    4.83352894546787   10.59394690089183
C         9.79018122941227    3.44925663294707   12.03667606170283
C        10.64056706546261    2.89862626141766   13.11047208948571
H        10.50493804939760    3.46148832032385   14.03332453566269
H        11.69208188793803    2.94101843427876   12.83222665146784
H        10.35411634031001    1.86545856155884   13.27962586993420
C        10.85632854907996    5.75932381296150   11.88287252527808
H        11.16919916122237    5.60185034631875   12.91620650472841
H        10.34407340088503    6.72180507417853   11.80321001742069
C        12.05733252636446    5.73326593022106   10.94439048822564
H        12.56505293890924    4.77261747661837   10.99016041932660
H        12.75876314471086    6.51126635556450   11.23027761421861
H        11.73639208988121    5.91421967983025    9.92178388648236
C         7.92401063465512    8.32368598037225    6.91005348691456
H         7.88014767495637    8.59141031392161    5.84893093526667
H         8.11192866465459    7.25438581614023    6.98817530798356
H         8.76198717432252    8.85769177132246    7.36669865432065
C         6.36439834441030   10.06534171280551    7.49324570252428
H         7.17548996522408   10.66107535059010    7.92142956960659
H         5.45067436262296   10.27464130752613    8.04139530446296
H         6.23479090145301   10.37015087360229    6.44977889679917
C         5.54420681234729    8.66636107492472   10.32635089463852
H         5.02956400716852    9.44729029729725   10.88849886387269
H         6.50328173647818    9.04468210088824    9.98037694091012
H         5.73095543647164    7.82166141847768   11.00415534080872
C         3.50306452174169    7.63581388993561    9.63013817136867
H         3.70235162286073    6.78484434282927   10.29630034546765
H         2.94769356360014    7.27424413186986    8.76825896643565
H         2.89432614849203    8.36004318137728   10.17346067879564
C         3.57336478353317    8.58284361724164    6.44972414032385
H         3.98689162982314    9.06561987927334    5.55801094771989
H         3.57475648221214    9.29106278323504    7.27327418244577
H         2.54011699129813    8.29897040654851    6.23287756754778
C         4.32278292810705    6.39245422471892    5.77795593646099
H         3.29960241345004    6.04982444226193    5.60367749300514
H         4.92255206808177    5.53933335402053    6.08923264937171
H         4.72510945264946    6.77562876030415    4.83410332922301

