84
CSD_code = LUNLEM | q = 0 | S = 0 | Stoichiometry = C22H43BN12OPRhS3 | MND = 4
Rh       13.39003183310063   11.86934759527030    2.35838613142185
S        14.88375058857956   10.04673582777773    2.57938847009431
S        14.86140009975627   13.28412570541706    3.75513051257866
S         9.99715571374607   11.75313300614402    5.65829612319789
P        12.09692896765442   10.82281544929088    0.79644762628818
N        14.49514561633536   10.31426922779310    5.27973043419401
N        15.19774538991861   10.09821334734503    6.41135489134785
N        16.43723780370741    9.53147474760667    4.69913554684591
N        13.31366326839144   12.40492401896954    5.82145347437095
N        12.79916084641295   12.88150325888146    6.96836551536039
N        13.83718043647057   14.50697754940512    5.93129581719131
N        12.16822611193946   10.23407440215791    6.20265094095623
N        12.49927773148272    9.17908753637872    6.98601024097727
N        10.40182703299228    9.70366482054319    7.35515011563786
N        12.31338256172139   11.58402063623514   -0.69366423419085
N        12.25751288744396    9.16292986211743    0.40391992233258
N        10.45222041768670   10.82233543932281    1.10314145890846
O        12.18573580530071   14.52846694926359    1.80898347966797
B        13.11347063434511   10.97179730513168    5.28985867464478
H        12.67504502216104   11.04448022802368    4.14481891322875
C        12.57339937149044   13.46480701937126    2.01290041348717
C        15.24635511343468    9.99443177280811    4.21748676924960
C        16.35217258655264    9.63170022292687    6.06423188931914
C        17.43372802284194    9.24526580474727    6.99762978706280
H        17.09324947876930    9.42955617324603    8.01156745764519
H        18.33521947981790    9.82616077957871    6.80738177934487
H        17.67261055032671    8.18793171782672    6.88755593203419
C        17.57039250101887    9.18000194010228    3.88415696230384
H        17.19048288239949    8.67074342859184    2.99426328523323
H        18.20361879634125    8.49387542740919    4.45097903850205
C        18.34530785267415   10.42775873938079    3.47058891325795
H        17.68988049473759   11.10247991208861    2.92466538415466
H        19.17627903991461   10.15222787722779    2.82800013278516
H        18.73156660033204   10.95065751189163    4.34291427244366
C        13.95699777888337   13.37948939624832    5.17340062300612
C        13.10830759795424   14.13771165841453    7.03207631908295
C        12.71902728953297   15.05846754390512    8.12268113529064
H        12.19371130210471   14.48852201758948    8.88245146475032
H        12.05612139850118   15.83538482804218    7.74252418587027
H        13.59503250148611   15.53205737556486    8.56335831504497
C        14.39159784940949   15.79020251939621    5.59350231522536
H        13.76771219799459   16.56488144877994    6.04472582751080
H        14.35466361971089   15.88355262283686    4.50383296357902
C        15.83718802734772   15.90983174436665    6.06529272601964
H        15.90520926428487   15.78191110982786    7.14360830979536
H        16.22990259410817   16.88747329335719    5.80161422212322
H        16.44254327888730   15.14759634075256    5.58124131798767
C        10.87975731273467   10.57850298164021    6.40708763168733
C        11.44588880302524    8.87633096353190    7.67291573783770
C        11.36022158670759    7.76877100258056    8.65341469385771
H        12.33080199776302    7.28705490121692    8.71546203161099
H        10.61569355065526    7.03681544805221    8.34077492134233
H        11.08163949605339    8.14576401986921    9.63628173330513
C         9.08215486300859    9.76557105011496    7.91844896501392
H         8.77644939117940    8.75835721060792    8.21321456270909
H         8.41835372844114   10.13393734533352    7.12961255330993
C         9.03455409426961   10.72271248702100    9.10599017323034
H         9.71424686303753   10.40074295049441    9.89226155269363
H         8.02586658127760   10.76660000316466    9.50699081568333
H         9.32621190752617   11.71694769234578    8.77718130542812
C        13.53000928991178   12.31116829166267   -0.97775248835940
H        14.15053841768572   11.79531703744227   -1.71986035108697
H        14.10759604178782   12.41065858866674   -0.04650655982894
H        13.29549082684952   13.30950936495382   -1.35973025913274
C        11.50629932690021   11.31700276373564   -1.86079731113596
H        11.22302995053315   12.26164823899776   -2.33574369747749
H        10.60486840202371   10.79094156292041   -1.56610943234611
H        12.04046475896596   10.71158637303833   -2.60409288112916
C        13.41481917060855    8.77182747194050   -0.37602356493813
H        14.32368309030171    8.70604445100239    0.23203437036772
H        13.58223802883703    9.49138963895066   -1.17277219430848
H        13.22258721784607    7.79214300023043   -0.82113905487990
C        12.03841337718760    8.25830652751061    1.51937475223682
H        11.67008008061486    7.30065252124461    1.14223611668610
H        11.30093414478883    8.68600250948364    2.19662930800413
H        12.96005433114064    8.08075889968983    2.08308740631165
C         9.48161206618771    9.91502153611628    0.52879750035703
H         8.96620029098180    9.35646053403409    1.31823439886857
H         9.97612758111756    9.20707730138275   -0.13129796623862
H         8.72315856376737   10.47101146678478   -0.03349543718599
C         9.86465042284128   11.71247681755912    2.08149409811702
H         9.22886125690093   12.46449619308172    1.60382943027292
H        10.64986098358087   12.21959139426112    2.64405216198909
H         9.25760596261037   11.15194231951995    2.79752918025463

