128
CSD_code = LUNLIQ | q = 0 | S = 0 | Stoichiometry = C51H55BN9O6P2RhS3 | MND = 4
Rh        9.11439411221803    4.84578454700058   13.98131333357409
S         9.85635728666496    4.59335429157081   11.77256860806531
S        10.68013551037739    3.35633422069705   14.98917077352429
S         6.48141674237238   -0.35010496234136   12.92362467176377
P         8.35745574247049    5.26609425721768   16.03612165870706
P         7.83085540054220    6.55481400665630   13.32614323547826
O         8.38400240629220    4.25166161553127   17.29938189258628
O         6.77730997627624    5.62787532581158   15.95462243119088
O         8.96012206600705    6.46638359559261   16.92466569469393
O         8.01990910538152    7.39069015675116   11.95530169965290
O         7.99504025352366    7.71152328685816   14.45999403460175
O         6.24169093551259    6.49647726639163   13.14585780060104
N        10.60564955887218    1.98635047695951   12.16965097511971
N        11.73388301810850    1.25241316546326   12.12047500317037
N        12.20612114983155    3.30904040064284   11.54733900468674
N         9.61293901828932    0.97532881281629   14.15435482128678
N         9.43182017476845   -0.26042937873229   14.64787605230624
N        10.34657009872741    0.98573377572791   16.19646235785958
N         8.93006231644630    0.18491524847224   11.88654545506102
N         9.76227107897866   -0.34375654991418   10.95620476972165
N         7.97078861764849   -1.59723354369379   11.08511959359808
B         9.28908995988746    1.40844152561063   12.70626413393235
H         8.43188209288264    2.23419368557082   12.70990265539908
C        10.87913176527028    3.25237004538701   11.85234233294331
C        12.68789333903744    2.04252244943233   11.74679701904832
C        14.09982970072384    1.64462716692397   11.54861084952668
H        14.19043546291490    0.58397718728655   11.76030021640468
H        14.75623396106063    2.20337140321797   12.21447817642405
H        14.40739827091797    1.83184069181147   10.52040242433841
C        12.93108263291861    4.52795729371834   11.29990388218147
H        13.84045767394602    4.28465856660192   10.74613546400399
H        12.29492275412595    5.17669639762006   10.69142780773345
C        13.25230365244448    5.22190621191762   12.61992835649523
H        12.32333190444985    5.44086459358038   13.14552268729968
H        13.77943235531344    6.15147530167163   12.42859265935183
H        13.86684814734532    4.58563144007485   13.25341844725238
C        10.16550884887548    1.75660492503291   15.08340368110557
C         9.86833961657714   -0.25454177928540   15.86755461095737
C         9.84851128197359   -1.41257263202842   16.78707516504743
H         9.26155194670956   -1.17657215419919   17.67394763643509
H        10.85800478806036   -1.68100580512508   17.09552706050482
H         9.39391865565140   -2.25176512027609   16.27049159940963
C        10.97064222271424    1.42496832759886   17.41423763375810
H        10.56095135990587    0.84049580097104   18.24070671415659
H        10.71094572340240    2.47854195084262   17.55417341535005
C        12.48753191746318    1.28013951197963   17.33643554145414
H        12.76949109587276    0.24354533751161   17.16488354577873
H        12.93802276106791    1.61870182848044   18.26487442274750
H        12.86950186243867    1.88722523099604   16.51945838944502
C         7.81581384641964   -0.56452895717567   11.98035565589332
C         9.18386769004884   -1.39840728545150   10.48284483529970
C         9.75219794763709   -2.28486621847097    9.44059936586406
H         9.09700434504468   -2.33078512453741    8.57165785317457
H         9.88210369045860   -3.29488426905528    9.82880452258034
H        10.71855403752310   -1.89051328642356    9.14248427309957
C         6.98570746562798   -2.61272978432564   10.83641502033660
H         6.44958554456008   -2.77338795899780   11.77738397900479
H         7.49739407609851   -3.53420687631327   10.54661533931090
C         5.99537984927786   -2.17700541119158    9.75988123095685
H         5.48065894333463   -1.27606463852711   10.08447689964268
H         5.26024676533983   -2.95973096672482    9.59551800486702
H         6.50620021000953   -1.97019284643395    8.82157974809151
C         7.86072326664853    2.98410820410287   17.26548036151720
C         7.37065820206110    2.39640156135775   16.10888564589833
H         7.38369849883176    2.95029425024104   15.17586379699834
C         6.86746812655558    1.10781501767986   16.15248019937047
H         6.50181818082978    0.64962245610342   15.24686674724403
C         6.84810620724744    0.40704649450918   17.34635520824392
H         6.45079717852383   -0.59606578639053   17.37172674062436
C         7.33490948051892    0.99714497682524   18.50123528032704
H         7.31752666473058    0.45895804924251   19.43839354531855
C         7.84350283666054    2.28268837174877   18.46602114464493
H         8.22357279139185    2.76222542892474   19.35498953547554
C         5.95226341876400    5.70957124848010   17.06098160726562
C         5.04641189923305    4.68418651383418   17.29823048311362
H         5.03016306431397    3.83120323822457   16.63709399155318
C         4.17916600464058    4.77506947824063   18.37158042627371
H         3.47652373127426    3.97613173271050   18.55462669538967
C         4.21462272824492    5.87824562976905   19.20839126517517
H         3.53805238725064    5.94372917476063   20.04731261411594
C         5.12082429810717    6.89645463731178   18.96697547150623
H         5.15328396999204    7.75890891268720   19.61629687643353
C         5.99255454102278    6.81694889030178   17.89486451786814
H         6.70372185149238    7.60279793622511   17.69520540846424
C         9.91503642553524    7.33772098101006   16.46614779383398
C        11.04821639059662    6.88835506889945   15.80250615663908
H        11.18597525250840    5.82563035417840   15.64508813126766
C        12.00247309159727    7.80071322252416   15.38209801241529
H        12.88687466093839    7.44469392130345   14.87511107302329
C        11.82635689428806    9.15450265234502   15.60954457838643
H        12.56740562127442    9.86319911532867   15.27139105450537
C        10.69678967124078    9.59712924937154   16.27771421447470
H        10.55167351802029   10.65152120887512   16.45950988904390
C         9.74344083768807    8.69445937145485   16.71107690314434
H         8.85819728250541    9.03211016353529   17.22731150242329
C         9.22899394798559    7.80592539610013   11.47122567023730
C        10.37889459055288    7.83256052582522   12.24727550022801
H        10.34019065325189    7.47893061854032   13.26996670703261
C        11.56027730591989    8.30552112633424   11.70409372287451
H        12.44764264912452    8.33633258188666   12.31803930685846
C        11.60472704303049    8.74528423081981   10.39268456735264
H        12.52958382037310    9.11338909933965    9.97397110424537
C        10.45597251294944    8.71147559712027    9.61917860121435
H        10.48285451223785    9.04941102130709    8.59392878336728
C         9.26890980955938    8.24646882749844   10.15309950630226
H         8.36447103723111    8.21419819076386    9.56645881946783
C         7.33966126406433    8.92520958913656   14.40520102090718
C         7.99168938681267   10.03440982739837   13.88442593138314
H         8.98918871240732    9.92205821218486   13.48597213118298
C         7.35675532181224   11.26351477488062   13.89006172860012
H         7.86356579460221   12.12610010599004   13.48348407242938
C         6.07916324989229   11.38855416697569   14.40964426406038
H         5.58674853143130   12.34950863462654   14.40987764598025
C         5.43427201524486   10.27836141053366   14.92822113563436
H         4.43808092254680   10.37096400641812   15.33525877762582
C         6.05976486868729    9.04430655134995   14.92698302300721
H         5.57427712793631    8.16933363077299   15.33079883904785
C         5.48156400872873    5.38133821154791   13.41974613694441
C         4.22461428806799    5.57004604511378   13.97723411211960
H         3.88600640742068    6.57237793495144   14.19065142686124
C         3.42738443559256    4.47217379291358   14.24998476870097
H         2.45163564887949    4.62122197377940   14.68876541388557
C         3.87981120551375    3.19309329149142   13.97250063412669
H         3.26085828385894    2.33677456261968   14.19293531554916
C         5.12924849213776    3.01007344821090   13.40384906499124
H         5.48200746846378    2.01512941305216   13.17711633949611
C         5.92993240733974    4.10393241375925   13.12375698902136
H         6.90183856722752    3.98225328630248   12.65424494336320

