31
CSD_code = LUNXEY | q = 0 | S = 0 | Stoichiometry = C13H10Cl3N3OZn | MND = 5
C         7.49319673327592   -1.50015919109481    7.99615885979609
C         8.43198477135037   -2.40503421484776    8.48830898226172
H         8.49358962784055   -2.59906460142796    9.54805174919353
C         9.27365598960566   -3.04320208151259    7.59255571004258
H        10.01160496485941   -3.74823396803763    7.94504481199727
C         9.15287441129185   -2.76078282982500    6.24071806283878
H         9.78868023092921   -3.23766848120613    5.51252129932300
C         8.19705265097404   -1.83696038124338    5.83671687705859
H         8.05984679666976   -1.57211312167001    4.79723189922595
C         6.59046322453645   -0.76456407530193    8.86185910533397
H         6.75339391960391   -0.77732546213782    9.93981493737343
C         4.13789107280496    1.59547844838096    8.07515120192203
C         3.34357334988846    2.64359373007403    8.74001805434229
C         3.07355714499047    3.80077873899050    8.00744165339256
H         3.45434751781463    3.87340716201804    7.00055811591760
C         2.35137734623455    4.83433034302763    8.56743081987983
H         2.15223658043567    5.73283185125147    8.00535733631302
C         1.87884464879367    4.70783478043763    9.86726183096300
C         2.12073003993844    3.55352365360978   10.60204695557428
H         1.73272767531172    3.46529808168995   11.60461344428574
C         2.85477542969767    2.52710980147902   10.04132237073101
H         3.00979809117216    1.62435403830981   10.61341365608479
N         7.39829258729202   -1.22654563610729    6.69032579915790
N         5.68618205684738   -0.07960472929372    8.29177246917395
N         4.84979786311400    0.74917754405592    8.90114659567191
H         4.96932246440218    0.97040984747531    9.88910862342042
O         4.18886315148967    1.46493164816321    6.86656259417982
Cl        5.94140465360090    0.20927211625992    4.05401847954537
Cl        7.29121078450909    2.19769966894671    7.28060861205236
Cl        0.97508936021168    5.98787519779673   10.57682746543121
Zn        6.16493486051121    0.56435212173410    6.19193162751563

