97
CSD_code = LUNYOJ | q = 1 | S = 0 | Stoichiometry = C44H44CuN4O4(1+) | MND = 4
Cu        2.49320880453628    6.36499222535130   10.73643215956571
N         1.83515896875494    5.09564555037597   12.23410350321100
C         2.41220508091187    5.46711731280012   13.51228926250179
H         3.41289149084777    5.02032824825584   13.58343751020663
C         1.59208798032921    4.98843782681102   14.71364595813032
H         0.60479852728124    5.45433861829531   14.68333680711180
H         1.46198990800240    3.90757390331179   14.66593977372154
C         2.31655862995116    5.36525114170907   16.00344998793503
H         1.72056141100798    5.05286249786182   16.86215367534839
H         3.26819897276019    4.83124403220664   16.04629251884057
C         2.57369470408358    6.86774786718828   16.07468475528086
H         1.62079012945842    7.39697342883111   16.14218837196261
H         3.14819198440952    7.10050256512637   16.97242877849804
C         3.32907842088180    7.35862104431587   14.84228380611451
H         4.31704538532623    6.89571244812740   14.79367592741938
H         3.45983972831829    8.43908660829674   14.89604293152498
C         2.53791825716393    6.99223398190373   13.58341535193621
H         1.53520206792776    7.43141848563812   13.67162620841789
N         3.14296085836986    7.47785808449806   12.35760467894246
C         1.76248940862108    3.86433987591363   11.91390722380616
O         2.23083581441399    2.84506736224313   12.67363298011136
C         2.00761697351913    1.59693918373252   12.02573418115997
H         1.37973031090628    0.97280726463488   12.67188711851072
H         2.97401323027718    1.09804551763140   11.89243268412497
C         1.33312499564986    1.94305088959920   10.73649298652698
C         0.88279181638449    1.15088696967673    9.70019633398691
H         1.00115907683512    0.07844568123377    9.72403063826771
C         0.26209048275927    1.77731365118385    8.62807020030531
H        -0.09775285353475    1.18052831440384    7.80414554727084
C         0.08735376658750    3.15614934344837    8.60028186920973
H        -0.41420853032859    3.60534307764101    7.75649719650166
C         0.54102595626053    3.95569524903455    9.63558271118860
H         0.42027810330070    5.02891714364868    9.63463038250671
C         1.17639957868965    3.32942265816806   10.69620516979957
C         3.22490537268425    8.73323371405302   12.15445795891814
O         2.74091207068490    9.67944879223619   12.99496315098096
C         2.98225876174411   10.98148169988453   12.47173733843560
H         3.59923035222891   11.53864812213807   13.18615453916814
H         2.02073187889325   11.49641377237128   12.36783795287739
C         3.68343032461140   10.75401581673026   11.17011703622646
C         4.15890416161069   11.63717958474549   10.22255883789137
H         4.04113756191431   12.70320895918078   10.34233848300377
C         4.80487214396845   11.11080483513271    9.11226568439132
H         5.18528867842462   11.78019750223537    8.35618563323615
C         4.97942665636184    9.74005288813616    8.96134054012259
H         5.50137673734064    9.36905555299171    8.09223125559302
C         4.49922117207882    8.84932887231216    9.90651144274501
H         4.61845019397606    7.78046873816087    9.80849784494549
C         3.83913076669700    9.37668258620447   11.00512506008332
N         1.50633362700778    7.38690934894488    9.22858778116483
C         2.21272293812427    7.24216565105494    7.96981080514340
H         3.03120135114834    7.97400420341834    7.94663854507070
C         1.32946476835820    7.47883151994685    6.74148981970347
H         0.53099527371746    6.73393827706330    6.72361492204805
H         0.87410243005425    8.46719631165374    6.79780939790346
C         2.18078208263942    7.37374720519112    5.47866732484286
H         1.54964159851025    7.51258665162663    4.59972303489646
H         2.92543517483844    8.17258447762706    5.48387227325043
C         2.88568208066376    6.02274715632759    5.39786100791602
H         3.53563529245609    5.99856357690401    4.52198615659579
H         2.14218907506871    5.23112682229946    5.28310848278767
C         3.70992431824513    5.75320214379946    6.65415010759694
H         4.50768901990030    6.49285345160229    6.75014343258646
H         4.16515673940237    4.76509720086051    6.59178240638056
C         2.80092272781428    5.83016466258509    7.88407173758000
H         1.98419563824419    5.10837748429503    7.74969388469423
N         3.48403847162316    5.52243838913540    9.12638523810392
C         1.04073330773017    8.52585890506709    9.55990361714396
O         1.19106511133836    9.65827026650593    8.83116888315000
C         0.56454088093912   10.75784878348362    9.48373752855164
H        -0.20659301093492   11.16715025802210    8.82097042587063
H         1.31946069989634   11.53259213232496    9.65803234614950
C        -0.00950122410552   10.18799446019516   10.74205238850665
C        -0.72181968614223   10.77426575598287   11.76813110856530
H        -0.94532324484322   11.83002748777761   11.76207896985988
C        -1.15250723122349    9.95952006843907   12.80630166159624
H        -1.71084949143156   10.39365485415970   13.62130984657026
C        -0.88684613590297    8.59511316406774   12.81073704602373
H        -1.25193183343379    7.99099625714975   13.62754197188746
C        -0.16793496622315    8.00288694511690   11.78618271528746
H         0.05482428902467    6.94627216516154   11.77052318627735
C         0.27574180705220    8.82169625984608   10.75978732194508
C         3.93490250299270    4.34609518628671    9.31841853703928
O         3.78830562422003    3.31687944165296    8.44969055505859
C         4.39311725090195    2.13676748039943    8.96832228105497
H         5.17120734206582    1.80512121215040    8.27126696117399
H         3.62793934253846    1.35519917854370    9.03344208987336
C         4.95040696761974    2.53706742927164   10.29726166729833
C         5.63836592655942    1.81780956540771   11.25309264419054
H         5.85330667185150    0.76907330582394   11.11650554326980
C         6.05533047218183    2.48956291897718   12.39415140162204
H         6.59393365427861    1.94949724185412   13.15751516986688
C         5.80063946025363    3.84515470259477   12.56732452092534
H         6.15470283310830    4.33637551903836   13.46100071410051
C         5.10721648366516    4.57027542294790   11.61322325494304
H         4.89401370593791    5.62287195876404   11.72709491512965
C         4.67633360838376    3.89294764904372   10.48345242024175

