65
CSD_code = LUPBUU | q = 0 | S = 0 | Stoichiometry = C33H26Cl2NOPPd | MND = 4
Pd        3.42235198506246   11.48322601380625    8.33386315936972
P         5.03369423994791   11.98438982752049    9.84763304708109
Cl        1.57749164151770   10.86452102548569    7.16265699021889
Cl        2.48357020997062   13.40209165855450    8.98943030081803
O         5.72538075022663    8.12204931806104    7.60731365668624
N         4.32174266089994    9.83980245824090    7.64137446780165
C         4.89662370409340    8.91987790140388    8.29926377312814
C         5.67759730563745    8.55590087679908    6.24433138097486
H         5.25557974406862    7.74626407035854    5.64336169058369
H         6.69601316392894    8.75633139627031    5.90678192720269
C         4.76401004250598    9.80226363419369    6.25631392193465
H         3.88012890307479    9.66666610208565    5.62046908852511
C         4.67866189928280    8.67967013590905    9.73258389455330
C         3.50379077776414    8.07199749618128   10.16002247154681
H         2.73005300351645    7.84440862143247    9.44129734966131
C         3.34767658961666    7.75692011237883   11.49796672728665
H         2.43501934269232    7.29158543397060   11.83638918569876
C         4.37017398083157    8.01771360227113   12.39627393783004
H         4.26133398990287    7.73863757996740   13.43327300139016
C         5.52350520583174    8.65457141387513   11.97629392954946
H         6.30859096273946    8.88573131103760   12.68071877375407
C         5.67287950840314    9.03086597182362   10.64727537559395
C         6.83345776533064    9.81974372450318   10.18310511216672
C         8.08689840615488    9.22881212140404   10.10217925944885
H         8.19661368194465    8.19469988989266   10.39550086656236
C         9.17581657394957    9.94137669746312    9.63099054498680
H        10.14274638549465    9.46575205504125    9.56298376409858
C         9.01755664220888   11.26132339552604    9.24332793430450
H         9.86113947374002   11.82224723297801    8.86903125894628
C         7.77798604654378   11.86695799516238    9.33967404506813
H         7.65905531810372   12.89987465537521    9.04376465912265
C         6.67460701426918   11.16567632411017    9.81892418495970
C         5.38168994437217   11.15565255830360    5.95504849018778
C         4.51444050386275   12.19296185423491    5.59264873431270
H         3.45115710973794   11.99865992573942    5.46773370471786
C         5.01950966231800   13.45570326251975    5.32286823347316
H         4.34658859207115   14.24801447168968    5.03143993512406
C         6.38112448908731   13.69915544042622    5.42826822421019
H         6.77523180071501   14.68040515087087    5.20977352324265
C         7.23310042127686   12.68554508898719    5.82900078559164
H         8.29114442059791   12.87485598817532    5.93376856320136
C         6.73649884760362   11.42074853280344    6.10319175702994
H         7.41972331232152   10.65140456102049    6.43391377556764
C         4.37595017059013   11.54818884478126   11.48669882051870
C         3.04183090162857   11.15901061218816   11.57403283932207
H         2.43001097233511   11.09987227164491   10.66600002883873
C         2.49137455199519   10.85454724328687   12.80654393295608
H         1.45520457078469   10.55896523514213   12.87412591944411
C         3.26613537663563   10.93369738603861   13.95176115510769
H         2.83271891127541   10.70520585501694   14.91424800283910
C         4.60065692334516   11.29757859169339   13.86552451441143
H         5.20696407240848   11.34536585991640   14.75870763452714
C         5.15980646713935   11.59776984922684   12.63736201744994
H         6.20968824739772   11.85068766881137   12.56266818923479
C         5.45832796618119   13.74971085410550    9.96304325593840
C         5.63103302671877   14.45743216343744   11.14462451416755
H         5.50552100339867   13.97187453108110   12.10030004583817
C         5.93572641974622   15.80765807717892   11.09668414672363
H         6.06192323726076   16.35758993475639   12.01793387568868
C         6.06608489501327   16.45595636679512    9.88088291524278
H         6.29867175723228   17.51026272804803    9.85368050948657
C         5.87403200023856   15.75644319372798    8.69953054063411
H         5.94959212885489   16.26344695007037    7.74909930534603
C         5.56471848929657   14.41177553345197    8.74170910327116
H         5.36877188732088   13.85690336176052    7.83041332556940

