47
CSD_code = LUPMIU | q = 0 | S = 0 | Stoichiometry = C10H26N4O4PtS2 | MND = 4
Pt        3.29335729231401   16.75110373227247    4.24377690277350
S         4.52897703124959   18.50526654422587    3.10422899093204
S         1.94959107639594   15.13960410044320    5.45070568010633
N         4.50570886118836   16.93748401259528    5.89784401265489
H         5.01111299316972   16.06902980368175    6.10212969504733
H         3.93165628513673   17.15207831629111    6.71539608961513
H         5.19132332596902   17.67827859868018    5.74226314710696
N         2.07027858038697   16.59925145307091    2.61215526434382
H         1.85704978335178   17.55709188799979    2.28075667579709
H         1.19745544360097   16.12952810436869    2.86108501543577
H         2.50918382873090   16.11521865859378    1.82796335218804
N         1.84998923362996   21.14601904776216    4.76058454371169
H         2.40676498835289   21.30505971756041    5.59024713475524
H         0.90085963946804   20.95060253754113    5.06338888270631
H         1.50212202658186   21.93392005347140    3.09892893231042
O         1.31814734215464   21.37552944698609    2.30819599275986
O         1.54500795683270   19.22711294374917    1.83714798120090
C         3.91062875453484   20.07254507804985    3.84160873726564
O         4.26310227812890   13.17538336407721    7.13924452795169
O         5.69509124838619   14.26429214574278    5.83926054015931
C         2.36341521909178   20.02268961209072    3.97733789662993
H         2.10636610994248   19.02995943022784    4.40225431043794
N         4.54422389716818   13.96080197943837    3.68269762870447
H         4.16054037050681   14.92775872687636    3.64045446008604
H         4.44762822233278   13.52830657598597    2.77477468168166
H         5.77872819916383   14.34219431569911    4.84841948026158
C         1.71115596359266   20.14877489206194    2.59797758016010
C         4.55962583983531   20.27333767037153    5.21548881269778
H         5.61010845564741   19.99655693907834    5.15244120223640
H         4.07383194530746   19.65990049730268    5.97344482381678
H         4.51587865085438   21.31866194130602    5.52157387438283
C         4.35407865384400   21.19568897108391    2.90627598294980
H         3.98280092334349   22.15922369403544    3.25385320917108
H         3.99914147906165   21.01733262936257    1.89353390110893
H         5.44098143761226   21.22883225815142    2.87687207422273
C         2.33249136405941   13.44859557461488    4.82299985850586
C         3.86026004398910   13.21048832261913    4.72869955825946
H         4.01679467213663   12.13880442988496    4.54724347173126
C         4.59088086409143   13.53144863491976    6.04557779350189
C         1.69217423070429   13.23259665216971    3.44975215444916
H         2.13399136334437   13.87186321255011    2.68780057978331
H         0.62884895318129   13.45305518885901    3.50864624231138
H         1.81150985446588   12.19387263788744    3.14067615951933
C         1.69703225897149   12.48424217267400    5.82022126504158
H         2.12427834257622   12.62212076863156    6.80845276043405
H         1.85655174754886   11.45305484391599    5.50722430519269
H         0.62717296807391   12.67383788101986    5.87589383387464

