91
CSD_code = LUPROE | q = 0 | S = 0 | Stoichiometry = C40H40N6NiS4 | MND = 4
C         0.25058911202546    9.13296098457731    4.32822526309751
C         1.55010372117056    9.57369026634106    6.19256586424646
C         0.38223434144833    8.82844760055960    6.86859735170114
C         0.35413484660591    9.73368777909615    2.11393375240782
C         1.66307460313803   11.20370053828534    0.88158593209556
C         0.92992056331642   10.48393169866390   -0.26793585748301
C         2.82504275066121    8.72761706299641    6.16313205286666
C        -0.51166479887635    9.74312595831880    7.65057240234120
C        -0.73951547562182    9.51722975844311    9.00104935695710
C        -1.54334141536327   10.37526143004036    9.73016517577291
C        -2.12105313417554   11.47412112659094    9.11901722778889
C        -1.90166450208170   11.70457584558442    7.77144663832897
C        -1.10774011686624   10.84130887001600    7.04028165968636
C         1.17217493205251   12.64233407701099    1.06988228627102
C         1.83144585782593    9.53185520141816   -0.99784554710909
C         2.20248556426495    9.79224197834361   -2.31009368827929
C         3.07015945611277    8.94470127186102   -2.97478636005417
C         3.58552265609490    7.83351344460071   -2.33102568140525
C         3.21943231426930    7.56623998065795   -1.02302715763430
C         2.34301286807238    8.40642671566815   -0.36136682238013
C         5.11588742426575   11.67073976045122    3.38262442420319
C         4.62950652537521    9.86403017559681    2.03028846456404
C         5.90167166837698   10.37873442907119    1.32340036874451
C         4.02095779577940   12.79168842651188    5.07284846903008
C         1.82261702748124   13.00468469457159    5.76149989524172
C         2.54272429467196   13.60413929275929    6.98869603949467
C         4.89601339554225    8.57506653175951    2.81098237444663
C         5.57496591339326   11.06475922012253    0.02894651327603
C         5.85829315356364   10.43547738919252   -1.17627958353863
C         5.50644027240520   11.02589428474602   -2.37619361125634
C         4.85799323527671   12.24840490931553   -2.38532720680172
C         4.57229043314327   12.88263679581448   -1.18874346041628
C         4.93100267957393   12.29670383715542    0.01169872534376
C         1.14522211566442   14.09126230733282    4.92104964200658
C         2.53832631925597   12.65144434256290    8.15162578978106
C         3.47755579638388   11.63521380467441    8.27090861334502
C         3.40205457171396   10.73241974795387    9.31703591655683
C         2.38719695229220   10.83273775130072   10.25211169806717
C         1.44809171203285   11.84368769383658   10.14013755931309
C         1.52123968652511   12.74528903106842    9.09497795534031
H         1.75783512604934   10.48272614119639    6.76592285463265
H         0.75306655172189    8.02789344271241    7.50980126225498
H         2.73232069560113   11.24025057010354    0.64254482544983
H         0.50205416382307   11.20558319831833   -0.96504039058258
H        -0.28630931976830    8.66271344113130    9.48219122798099
H        -1.71998507571532   10.18315382560585   10.77822485534576
H        -2.74643012840771   12.14563566325902    9.68841014337290
H        -2.35775682125475   12.55496132546138    7.28591168037018
H        -0.96248676719875   11.01116968757586    5.98272257570698
H         1.80701390337358   10.66235413885487   -2.81380731938369
H         3.34007093770381    9.15171173095595   -3.99942418476686
H         4.26401806550336    7.17249790881533   -2.84933431267697
H         3.60993456848172    6.69543191049875   -0.51736574853679
H         2.04025403164985    8.17586314664993    0.65020318214383
H         3.86918233148770    9.64925412965497    1.27290432397193
H         6.60279716908973    9.56206060714833    1.14829786499157
H         1.05029805933324   12.30738277343281    6.10403093893960
H         2.08022407554157   14.54835665103308    7.27945085941952
H         6.35844736049811    9.47788984883757   -1.17319612688833
H         5.74373317605004   10.53090374990913   -3.30557870756507
H         4.58316420163860   12.70954206738635   -3.32217375731108
H         4.07483585330697   13.84149099298845   -1.18863186686098
H         4.72266394411706   12.80791037419450    0.94081290300475
H         4.27760764075698   11.55337225690380    7.54997759828376
H         4.14404461998341    9.95226392784979    9.40311359492208
H         2.33152110177755   10.13032682672387   11.07010621334104
H         0.65788815435180   11.93399588646368   10.86950423852053
H         0.78333620951973   13.52996526295876    9.00883672040865
H         3.58934661313920    9.26589895799636    5.59902492388994
H         3.18568915626276    8.55415698146541    7.17353892027369
H         2.63232673662117    7.77194338664820    5.67857529643302
H         0.09619784994773   12.65756847386455    1.23833078034261
H         1.40789933572003   13.24258491783592    0.19448411135781
H         1.67881810720082   13.07404670811467    1.93841171066623
H         3.98224042592624    8.27460252182487    3.32138367141300
H         5.67897718411272    8.73481657165279    3.55004742603954
H         5.19915684391468    7.78145911906011    2.13271829554406
H         0.38369037053233   14.60111012706509    5.50629129768964
H         1.88014557838641   14.81882424981865    4.58002517070347
H         0.66932299757349   13.63232815583806    4.05455354651277
N         1.17382716474434    9.90780044293653    4.82912807888661
N        -0.20448157082598    9.05998583339736    3.09404522453002
N         1.44090139459764   10.46007206945723    2.11105700568515
N         4.16391547607170   10.88834991947327    2.94903166392527
N         5.10010271433212   12.54510646917049    4.36625692018518
N         2.81004236363662   12.31114917248875    4.95073787040226
S        -0.51935258136905    8.03992177512970    5.47518731775684
S        -0.46400808591059    9.61807738346761    0.55560278697898
S         6.66317141267227   11.50714959461948    2.54982256729201
S         4.22259348429737   13.97819894898712    6.36590844317382
Ni        2.31852808261301   11.03090071818673    3.66235908588458

