35
CSD_code = LUPRUJ | q = 0 | S = 0 | Stoichiometry = C14H12Cl2N4S2Zn | MND = 4
Zn        3.51027762602106   11.24155486839416    2.94513683734135
Cl        5.00018638762959   12.48444120383034    1.86674847985886
Cl        3.40438504222658    9.09228934770715    3.33015395852683
S         4.72880632357634   13.55484908828060    6.71009166899137
S         0.28265854173328   13.74752621056827    0.91151849020147
N         3.60939833795055   12.19983253794149    4.84914881747323
N         3.30417324864899   12.93122152334872    9.51515836545975
H         4.21177210307421   13.36381075619512    9.46157509332855
H         3.05789161411373   12.54701140060201   10.41181060104899
N         1.70923183443136   12.00343643355949    2.12411680977864
N        -2.70924058116383   12.65049110617278    0.56275617527202
H        -3.68595348203013   12.43438398434493    0.66348838348614
H        -2.48015986902740   13.62147963656244    0.43255350688511
C         4.54265942550311   13.06004595095728    5.07940705615842
H         5.17442251053891   13.45244585787552    4.30337444713295
C         2.93628660105985   11.84480584920767    5.98982097421716
C         1.88091801991024   10.94180514290389    6.07681054043746
H         1.53266592116418   10.43737930307728    5.19223716203790
C         1.33725464043450   10.70539425622703    7.32203997089696
H         0.52368401099703   10.00353222091306    7.41972854833680
C         1.81506407532947   11.33983234802735    8.46210306460388
H         1.36844190119267   11.12611049743857    9.42166220914939
C         2.86824198243483   12.25117789150863    8.40739949311149
C         3.41302530170360   12.49201798802659    7.14312029553790
C         0.46041698182141   11.43992542855467    2.05472941903850
C         0.08980154393727   10.18695552399228    2.53588001850065
H         0.82573269280125    9.54516508718930    2.99112812507136
C        -1.22410361133855    9.79931815319435    2.37382061090053
H        -1.53737296648760    8.83264362419996    2.73626394307950
C        -2.15952397344387   10.61802477123958    1.75364743252122
H        -3.17883395280834   10.27980491249456    1.64180175840605
C        -1.81636633815351   11.87164437837246    1.24936004958623
C        -0.48532119497873   12.26314476050056    1.41777961403663
C         1.75270528921046   13.17038837393183    1.57610048270171
H         2.65497401199735   13.75090958266703    1.51762759687811

