39
CSD_code = LUPSOF | q = 1 | S = 0 | Stoichiometry = C14H20N3NiO(1+) | MND = 4
Ni        3.85171438607593    4.20500459705322    5.47840352728687
O         3.52352184656077    3.24979259916110    6.97895012546075
C         3.83660208558674    4.94289908157951    1.40109152258308
H         2.75037396820875    5.01020748431888    1.40485698082672
H         4.14207357198367    4.36869591726649    0.53226801669934
H         4.25159113040667    5.94221927682706    1.29354060718184
C         4.34257553265234    4.29847282403914    2.69100170673647
H         5.42305316408882    4.11844047980243    2.60983112179255
N         4.12362526371629    5.18420787079806    3.85371232416290
H         3.24474334550592    5.69022829977098    3.69445920156644
C         2.50104702958662    0.61206695181928    3.72976038670519
H         2.03531283907104   -0.30251867074714    4.05777298800584
C         4.89276001083754    7.20157247223403    8.27460855461556
H         5.95119186043317    7.37811211585241    8.08477701353480
H         4.73425161269143    7.21381522560597    9.34763085909436
H         4.32679546088518    8.01723649160016    7.82827411522840
N         3.37013099250419    2.75728939011746    4.29194898955066
N         4.46375958159105    5.69799620462924    6.39211927209681
C         4.87386251370815    6.78313318123378    5.49662409870360
H         5.76591698280126    7.29071353135252    5.87646900194067
H         4.06543661854279    7.52287462952625    5.41646984106211
C         4.10612929730684    4.86903012698517    8.59596470606023
H         4.17059640555907    5.07384272736564    9.65023923584197
C         2.79494755405553    1.60745589928874    4.64446103324968
H         2.57123939192799    1.49154811851659    5.69713594659050
C         3.68106185675255    3.61448096903233    8.19571904056197
C         3.67635488134863    2.97001834477399    2.99885495551077
C         2.82201869268229    0.81650323714930    2.39726775686443
H         2.61414766102062    0.06113308005448    1.65582818149765
C         5.17445560094328    6.17786257566719    4.12333906028016
H         5.22271332464100    6.95510333795740    3.35206012651031
H         6.13452326814862    5.65440855763215    4.15937863644319
C         3.41785250278967    2.01266329507605    2.02967489368184
H         3.68219037804309    2.19615121332000    1.00146675384735
C         4.47094631655908    5.88282103129025    7.69832908752902
C         3.34274866154368    2.58285780634535    9.23751401613703
H         2.31787561348449    2.73865447888325    9.57317834640696
H         4.00126668566656    2.66932546148495   10.09618434764204
H         3.41719211008882    1.58517978533627    8.81253362050963

