94
CSD_code = LUPVOI | q = 0 | S = 0 | Stoichiometry = C50H32N6NiO4S | MND = 4
Ni        2.21708654871235   12.47446776552535    3.01898988244246
S         2.46667095849143   11.42687202172723    5.49695240960284
O         3.47357049025285   10.71297530116416    6.23349972084333
O         2.44984791552888   12.86824818688484    5.48460486090977
O        -3.72941442666209   11.21738070651515    5.24454043926849
O        -2.53254183174436   12.99834510881035    5.24134044045217
N         2.71748055802343    9.86393345459728    3.39439843639475
N         0.39913102011369   11.77995721580653    2.55097139445605
N         1.97473453922531   14.12781513986779    2.31768943766621
N         4.22715677115966   12.54976078523234    3.09946879387011
N         2.33249454806063   11.00514491044181    3.95908249353276
N        -2.67734269740058   11.80306840287066    5.37976087562271
C         3.99564621560119    9.40533506999793    3.31783316939985
C         3.89883420101881    8.06470884749104    2.85027104944558
H         4.73769974447212    7.42164001327256    2.66718528568819
C         2.58012320008960    7.79195314346595    2.60216658363467
H         2.17552019436264    6.89217219566910    2.18114198764120
C         1.81920649209866    8.95078630366801    2.92353493326153
C         0.46703085354955    9.24693642547526    2.69765224350994
C        -0.14216066717232   10.51576565409698    2.60422394679487
C        -1.56797877300647   10.63045132380738    2.42398431973360
H        -2.26182274187049    9.81422924014816    2.47235163440347
C        -1.85706514520916   11.93674788115084    2.21499114278570
H        -2.81645114604665   12.37717149677787    2.02926703607339
C        -0.61467789165804   12.64935421779842    2.27955127606103
C        -0.46363274027808   14.02011839494494    2.02297506380924
C         0.76403599499233   14.69133391981661    2.05348014615926
C         0.93293485058972   16.11121160056030    1.88724047496553
H         0.14051106484382   16.80488431933292    1.68522207508634
C         2.24637890608889   16.37949125603397    2.07408615340706
H         2.73372611901156   17.33456027912377    2.05174835043554
C         2.89638214474176   15.12709626446552    2.35781915161556
C         4.24179599018515   14.97946059258026    2.70888089360636
C         4.83752073225383   13.76546828541773    3.07947342930260
C         6.21939737029687   13.62417557229551    3.44546687129823
H         6.92933718420491   14.42517532814122    3.50762189196228
C         6.42568941644600   12.30952011939143    3.68052646505385
H         7.33267861011941   11.83768456380200    4.00285982926241
C         5.17777769897339   11.62336808219640    3.44772460536005
C         5.12110934225575   10.21911039839548    3.49990045090699
C        -0.37144397690870    8.05607442845297    2.44352156150890
C        -0.40064711183638    7.02506536230670    3.37942716619983
H         0.16768821822262    7.12782501800151    4.29246761117526
C        -1.15928187642565    5.89162403072068    3.15298212688359
H        -1.18136139591227    5.10333685792516    3.89112111562440
C        -1.88701420001910    5.76442277754454    1.98145647641016
H        -2.47732472674937    4.87811114606204    1.80351234617917
C        -1.84921096618642    6.77624228921322    1.03616664614925
H        -2.40532249766416    6.67671505557523    0.11578512511840
C        -1.09800773810365    7.91443498538849    1.26360989922990
H        -1.05607449860158    8.69616038005461    0.51968901269176
C        -1.67064780768768   14.80596905542507    1.69622725437172
C        -2.70542473857799   14.93685793171944    2.61813398165995
H        -2.61921451684362   14.46816516259214    3.58677016976328
C        -3.82785954615990   15.68123287643692    2.30252924626036
H        -4.62253853018912   15.78031563328060    3.02685850700884
C        -3.93424062603825   16.29636561422794    1.06624550090247
H        -4.81301191417115   16.87462415634299    0.82152987557842
C        -2.90858047598286   16.16862099087376    0.14410886654128
H        -2.98708191101574   16.64496423864496   -0.82239210479423
C        -1.78093910948779   15.43204549507320    0.45728298263681
H        -0.98257978171093   15.32421723822348   -0.26280186251372
C         5.08159540941094   16.19542095231521    2.72246512272458
C         5.33404338619071   16.89149031130081    1.54421515178994
H         4.91998271097308   16.52675268815623    0.61540093957225
C         6.11989054876590   18.02968747048069    1.55973188897914
H         6.31560591194612   18.55942769595401    0.63886673871620
C         6.65391601967994   18.49051043835196    2.75157721368652
H         7.26488769316614   19.38091541972122    2.76277879266201
C         6.39999166572840   17.80711354361713    3.92938281647623
H         6.80984335541724   18.16674032927129    4.86181790414520
C         5.62134279786632   16.66418264751172    3.91668203623290
H         5.41115107081642   16.13399957235990    4.83383070628770
C         6.38203015810299    9.46798307667026    3.67514076348947
C         7.43878554451633    9.59079440652404    2.77713293262992
H         7.34551005574124   10.26293763116520    1.93646255714939
C         8.59046490195686    8.84509385975537    2.95017685006820
H         9.40389241655040    8.94368487873048    2.24633155387269
C         8.70198892572372    7.97322940003816    4.02093447724630
H         9.60406827731072    7.39508013598020    4.15589206219694
C         7.65316405986275    7.84428089556258    4.91669137447822
H         7.73781634910424    7.16705005563920    5.75378536509339
C         6.49560916497538    8.58010832790168    4.74158326761010
H         5.67824299701581    8.49803369326146    5.44268522737585
C         0.84142037607135   10.83203930643660    5.99123744827104
C         0.69201010190991    9.51219706381577    6.38421366707530
H         1.57915464242179    8.94708485486860    6.62672941164125
C        -0.57287189840273    8.94759265179084    6.46049576005894
H        -0.69387638338704    7.92287813979680    6.77619890815924
C        -1.68330269277974    9.69796477684529    6.11918242197737
H        -2.67791181981035    9.28003437629310    6.14838142801671
C        -1.51699081525662   11.02441501280881    5.73299138065891
C        -0.25731078612994   11.60383089515518    5.66606429992942
H        -0.12514603212742   12.62897497908283    5.35332838141033

