65
CSD_code = LUPYAY | q = 0 | S = 0 | Stoichiometry = C32H27AuN2O3 | MND = 4
Au        0.72546793955404    9.14402658298737   10.82800039538390
N         0.22528535374283    7.87831065917509    9.41180813343443
C         0.87792409355821    7.95330991252565    8.24472156410473
C        -0.46061184308185    6.13267002483077    7.46129307328925
H        -0.73467502719366    5.43606139907476    6.68237583833968
C        -0.74450964578550    6.99299945572108    9.67466620506492
C        -1.11256023553755    6.08568187272058    8.68318790898201
H        -1.88926375467549    5.36092606262704    8.86262768086034
C        -1.29087793726432    7.12023451958994   11.02024277165754
C        -0.72518959817357    8.13657819829962   11.82606268842667
C         0.53914080715651    7.06317320718764    7.22745292236910
H         1.04480272835036    7.09716360230996    6.27672556348251
C         2.69044794602195    9.26118898131174    7.10618112512594
H         2.58251520578849    8.67373116654095    6.20576761153862
C         1.88929432222762    9.00270186505591    8.21683505520734
C         2.30541482022882   17.14138395032245   21.17721658826312
H         2.01010248943554   16.80871239947837   22.16966849825375
H         1.75033460483512   18.04652245418609   20.94439288558257
H         3.36547311790018   17.38298258411214   21.19509970678595
O         2.58172810576240   18.81376477231847   18.54782052055689
O         4.40626034800829   14.97341345436869   17.30385376485950
N         2.24909536666201   15.43112127438758   17.77759219901225
H         1.27978409430774   15.32358796474271   17.52163043723023
C         1.54971433230455   11.14810658755268   13.04232800585982
C         2.73609580226168   13.87440566934244   16.01627347948959
C         1.55004811832153   14.07406955835820   15.31233350520844
H         0.93859414323858   14.94622042546328   15.49904777558620
C         2.02397427288274    9.76588779655218    9.40064109929524
C         1.94889487635306   12.06503944698724   14.04343013763114
C        -2.30832482566686    6.30369723087552   11.51025992372814
H        -2.73491099269056    5.52939202032500   10.88899167514914
C         3.62911289487678   10.27346589299293    7.15442318263853
H         4.25036513549302   10.47333021469337    6.29344289553920
C         3.22419908122021   14.80903855726672   17.06637997706166
C         2.02888051555198   16.04200419679923   20.15638016810153
H         0.94668453629461   15.88027483497749   20.08684241540621
C         3.77127609778302   11.02918794078065    8.30674707224339
H         4.50539298740576   11.82117109001425    8.34431081275172
C         1.21851954146856   10.36403309222596   12.18581104462465
C        -2.77597586510687    6.48302618674209   12.79758928736796
H        -3.56466339561423    5.84971363515076   13.17722165242423
C         3.53273079224873   12.77321132578485   15.70640381874350
H         4.46006966146468   12.64406146687648   16.24439932724513
C        -2.23192372488342    7.47431740983499   13.59784952192825
H        -2.59787749471839    7.61450401552225   14.60490991943130
C         1.16117588855946   13.18041207245124   14.33541703887875
H         0.24593946132923   13.33781264330741   13.78325564977111
C         2.97495929101300   10.77319553613825    9.41366178626627
H         3.09438436636902   11.36889831354041   10.30752075006171
C         2.53296953639308   16.45377238412295   18.75422170703596
H         3.61726251770177   16.60067703138252   18.77397881177933
C         2.02036370502660   20.06562025305510   18.17177889071583
H         1.89480329375212   20.11211420787462   17.08839011164792
H         2.72041128056852   20.82583310128404   18.50778862706404
H         1.04561740703146   20.20184745556984   18.64477170387580
C         2.70295644029473   14.73917459975619   20.57671784077011
H         3.77991845014827   14.87590191497827   20.63566937544860
H         2.49914012074806   13.94904505581903   19.85871002638991
H         2.33700136594960   14.42388130665622   21.55091810362314
C        -1.21864388150820    8.28795962670252   13.11180363881241
H        -0.80115084681234    9.05770916474785   13.74538874971413
C         3.14481253095543   11.87225411690612   14.73866778456311
H         3.75937571390737   11.01525045960845   14.50504601419276
O         0.75477634072265   17.76116378552910   17.78848291033197
C         1.84316722553212   17.73467201157014   18.30447064379054

