55
CSD_code = LUQDIM | q = 0 | S = 0 | Stoichiometry = C22H24N6NiO2 | MND = 4
Ni        4.38083160562444    4.45144994814027    4.69323863936962
O         3.44481275892784    0.81161127445213    5.70396138903370
N         3.36336293296404    3.09666400312108    5.39939261265294
N         5.23319733899541    1.94962125042952    4.84350730022671
H         5.70621668208089    1.07357611045036    4.65623956533926
N         3.16296311630282    5.82137561345129    5.18510576857985
C         1.96414027093265    3.22321742274017    5.72137941319289
H         1.65760199189062    2.33457544472766    6.29161770988789
C         3.90613760933389    1.88333972028407    5.35818782220102
C         2.10528610673948    5.75791815437263    5.90966945204129
C         1.73971153641564    4.47241621317577    6.60078391403323
H         2.35264456993614    4.37084398852758    7.50230107676802
H         0.69291670925245    4.50899952667428    6.90218722752663
C         1.21335240923682    6.94880321508711    6.10932900449451
H         1.77870058251192    7.79808210793909    6.49701387312881
H         0.41690339490138    6.72177319924245    6.81036931760624
H         0.76388994915766    7.24425543603165    5.16017482722651
C         1.09894611778617    3.33389080319240    4.47796162463289
C        -0.24957016082036    3.00759768326653    4.54599644056181
H        -0.66151669757070    2.63556176320231    5.47345638098690
C        -1.06373086709283    3.14420613841989    3.43616609893221
H        -2.10983607590515    2.88274705023552    3.50136366697907
C        -0.53953698847768    3.61148648767697    2.24270539280040
H        -1.17483881564176    3.71851981092088    1.37594450325514
C         0.80440991755401    3.93431807718868    2.16381541299197
H         1.22081671898578    4.29531375026343    1.23464986106772
C         1.61674286703210    3.79507292602386    3.27464008563197
H         2.68361959682162    4.04342368309909    3.19500967976160
O         5.31685356686627    8.09129027216854    3.68252669277950
N         5.39829759377129    5.80623461654612    3.98707839148025
N         3.52846269661267    6.95327628527492    4.54296355239632
H         3.05544370038603    7.82932110895372    4.73023540298867
N         5.59870192425167    3.08152187564894    4.20136898534755
C         6.79752485256010    5.67968177669244    3.66511095654170
H         7.10407226317136    6.56832593548483    3.09488080220873
C         4.85552661594725    7.01956038076148    4.02829311719633
C         6.65638886000620    3.14498291458695    3.47681940234149
C         7.02196431644416    4.43048551907701    2.78570636007648
H         6.40903645070510    4.53205752717506    1.88418562333607
H         8.06876107253905    4.39390448556032    2.48430988313862
C         7.54833522749732    1.95410488852768    3.27717349883870
H         6.98298938054844    1.10480673095693    2.88952167208384
H         8.34476824925068    2.18113056119735    2.57610748906490
H         7.99782165525027    1.65868650108560    4.22633008830731
C         7.66269930920962    5.56900825416646    4.90854276683234
C         9.01121830679165    5.89529585711035    4.84052823375959
H         9.42318139221222    6.26732896060274    3.91307478760274
C         9.82536164618462    5.75868914852020    5.95037182829177
H        10.87146745802074    6.02015007033631    5.88519106343088
C         9.30114850200486    5.29141601772519    7.14382681204972
H         9.93643564599687    5.18438821239446    8.01059918605760
C         7.95719868196516    4.96858841270992    7.22269669937584
H         7.54077601260492    4.60759366315019    8.15185536272548
C         7.14488366667426    5.10783191117231    6.11185845432843
H         6.07800577465417    4.85947731006705    6.19147482651107

