97
CSD_code = LUQGEJ | q = 0 | S = 0 | Stoichiometry = C44H40N8NiP4 | MND = 4
Ni        2.11688705852513    2.22016476388776    4.30301457256198
P         3.60408525655284    3.64424444964675    4.95569521531568
P         0.72825188814369    3.80024989505544    3.78054164963638
P         2.58694342733744    0.74049616709637    2.78992916431409
P         1.63829487368871    0.69023769368473    5.75095695752772
N         4.55795037253132    5.02885850473491    2.91980465004123
N         4.49137518219802    4.48892675207438    7.36466885141701
N        -0.90227388251684    5.00429378227724    5.52871740949922
N        -0.97796826404888    3.98011988271038    1.66849165551100
N         2.24025898911834    0.68494186460526    0.09123715746826
N         4.97833773975157   -0.43481498678978    2.81891889180428
N         2.81257409498103   -0.40880132755432    7.91866512192191
N        -0.54491271251227   -0.70635365717684    5.15814738195110
C         4.94065260476649    4.13514589560080    3.82516164329202
C         6.19472784484531    3.52828555400095    3.79543261771656
H         6.45880160461104    2.79297341568988    4.54101021993204
C         7.07830491789450    3.89174071811193    2.79799911923596
H         8.06246520724581    3.44667703469887    2.74804320226828
C         6.68085462976272    4.83344239165797    1.85794983229932
H         7.34118833134202    5.14102926636778    1.06167427729670
C         5.40658175155750    5.36702751105575    1.96688036836256
H         5.04463594281905    6.10157789930083    1.25657784256182
C         4.51583080290321    3.46785312773922    6.52103816722911
C         5.12425557899277    2.24977944031551    6.82242485162248
H         5.06305895228320    1.43723226847356    6.10962057753892
C         5.75483341687349    2.10941583910575    8.04271320650831
H         6.23630182812493    1.18020429613750    8.31384943026959
C         5.73852860439694    3.18289065782475    8.92384957779847
H         6.21040196237321    3.11483758258072    9.89214940468870
C         5.08761360469282    4.34307250417781    8.53553729286261
H         5.03843319774630    5.20256657995217    9.19323747837558
C         2.68153470099069    5.22020838546111    5.19334390429706
H         2.19748937130652    5.12814517209337    6.17028836299349
H         3.37383830708958    6.06446851188387    5.21757002751814
C         1.63083687124656    5.39041444991495    4.09584468923337
H         2.13156689935202    5.66038112589662    3.16258675355641
H         0.90245455484642    6.15824972065209    4.36765920896617
C        -0.86661518265841    4.05601238444938    4.60243423062090
C        -1.93052775934459    3.18671318208652    4.36772096694877
H        -1.82986732823303    2.41592711831008    3.61891665100663
C        -3.08706458687944    3.34937530892463    5.10303708957291
H        -3.93983528200859    2.70401377678489    4.94241661199105
C        -3.13215484076860    4.35241092116650    6.06338023151278
H        -4.01428611002347    4.50934747436042    6.66578769870679
C        -2.00954127129292    5.14522493218872    6.23684026547891
H        -1.99135288936446    5.93324246976845    6.98063799674010
C         0.29853104614493    3.98629123392132    2.02385523289301
C         1.34280389029053    4.01234822914463    1.09742806404202
H         2.36439949870495    3.97470736989863    1.45386496465504
C         1.03347937703864    4.05991293967229   -0.24563856432116
H         1.81317173579650    4.07796347848723   -0.99448486803701
C        -0.30527592178657    4.06849626559219   -0.61940318190638
H        -0.59326673634659    4.10028746044805   -1.65908220078096
C        -1.26454485813224    4.02284293081547    0.37788593187947
H        -2.32113934596182    4.02014656743343    0.13774096968382
C         1.61302901364465    0.64866701641857    1.25769218576795
C         0.22130640502808    0.65318348556001    1.36859942441313
H        -0.22830874789975    0.66306092177195    2.35312328875010
C        -0.53442184880136    0.67031385038843    0.21545533138011
H        -1.61472130120803    0.67742529956729    0.25881862038506
C         0.12306821710301    0.69262810169166   -1.00902584911377
H        -0.42794218619887    0.71201217412255   -1.93679618824303
C         1.50734936861817    0.70335056213754   -1.00984439416122
H         2.06649647203758    0.72975183731737   -1.93750592806292
C         4.28530703623389    0.51358007621147    2.20215832507169
C         4.85736222491305    1.39439005395222    1.28619742362540
H         4.24816275721532    2.16332674320314    0.83680971996762
C         6.19396528337069    1.24295159735362    0.97659611691308
H         6.67263110487815    1.89687936299022    0.26055941026372
C         6.91811083658225    0.24092976897101    1.61021170773460
H         7.96724815890411    0.09370085748897    1.40234110983567
C         6.26044972702623   -0.56397439113633    2.52599999493900
H         6.78347879015596   -1.35245235503104    3.05457925440274
C         2.18884708543248   -0.89991971988317    3.55797447497277
H         1.13915819044891   -1.10694091139021    3.33225738879395
H         2.82644428041454   -1.66528775559097    3.10871916385425
C         2.37133102628416   -0.85528566281979    5.07457888006974
H         3.43561168804198   -0.81231692021169    5.32439321605737
H         1.92357706047459   -1.72666780042010    5.55668620408137
C         2.22274415142784    0.69146059954035    7.47558338879501
C         2.11245660766749    1.85228781704978    8.23930371283161
H         1.66761083186763    2.73580756223737    7.80002246150448
C         2.61375918798330    1.84731459773450    9.52610516884733
H         2.54840728388767    2.72845899645673   10.14904768298740
C         3.22226840456116    0.69079042339328    9.99555458831991
H         3.63516040282022    0.64418100427472   10.99169612093250
C         3.29996134451528   -0.40249387301949    9.14719511002087
H         3.77571389280600   -1.32266713062574    9.46441457625646
C        -0.10596046727052    0.23078637099559    5.98925770985081
C        -0.95025195824478    0.91675245681420    6.86096074264033
H        -0.55151941489099    1.68878220317039    7.50241950702560
C        -2.29109758611838    0.58792888403319    6.87486750935472
H        -2.97426436005902    1.09437082021273    7.54251152497012
C        -2.74843172208804   -0.39907507734149    6.01100139103344
H        -3.78973590506650   -0.68172510225521    5.98732141526196
C        -1.83029893574511   -1.01007137952833    5.17248058127127
H        -2.13607134769679   -1.78194254215945    4.47580910034134

