51
CSD_code = LUQJUD | q = 0 | S = 0 | Stoichiometry = C22H24N2NiO2 | MND = 4
Ni        5.49394190515976   -0.34214666578157    8.43240520944062
C         3.60139920199882    2.23152728496215    8.18701249970675
C         3.06497588852026    0.94358777769428    7.86788252422850
C         1.79325609739733    0.91278587819788    7.23346146274651
H         1.37293887738070   -0.05699170662695    7.01624645572188
C         1.14783587229166    2.06541335073251    6.88349663466828
H         0.19295499325208    2.01182642147641    6.37976411248639
C         1.70435136388752    3.32178716713956    7.16166915521268
H         1.18044892839891    4.21925234176655    6.87037963797042
C         2.90493026802602    3.39544864437440    7.81374865349974
H         3.33786392255612    4.35817659098654    8.05175977077024
C         4.76412102439279    2.32107993036127    8.98966502961178
H         4.96695819979443    3.32799379523802    9.35745772071848
C         6.51525862044257    1.67337086281355   10.42371378263110
C         7.24566286092863    0.37213457144741   10.86299916219586
C         8.10416427705786    0.07408373168278    9.61233771405961
H         8.99047191751601   -0.50675232647958    9.89890694659930
C         8.52267048167434    1.46120598419228    9.06599937172257
H         9.58234203347493    1.64169386457415    9.24169390653414
H         8.34968316624491    1.48881412271862    7.98950335553988
C         7.64891003750685    2.49655699528518    9.78332452580918
H         8.20801032248654    3.02498466559347   10.55483654020899
H         7.25604473075914    3.23911560122523    9.09017853384064
C         5.83872561412712    2.39007922266136   11.59499780596817
H         6.53512808721533    2.51640468102244   12.41714790118856
H         4.98299330250589    1.81301303289678   11.93756065652423
H         5.49117097392191    3.37929235395811   11.31022997876318
C         8.19687525926734    0.59034765865978   12.04604966687763
H         8.78469572026498   -0.31251942856138   12.19924032541380
H         7.64547645661186    0.77644484380509   12.96320698983079
H         8.88460674707281    1.41251819982983   11.87517571034076
C         6.29826326430240   -0.76806043329178   11.24628966968210
H         5.55392082309440   -0.98000890219240   10.45769310140019
H         5.76109975751511   -0.51144505891737   12.15595548103790
H         6.86898390053214   -1.67670008065781   11.42585752957715
C         8.04939726671691   -1.53560751553551    7.93041645642004
H         9.12226453685056   -1.60638010334207    8.13122615914310
C         7.56537315931679   -2.43613535463753    6.95442606937165
C         8.45743769283617   -3.27253209607047    6.25628567706726
H         9.51640819432864   -3.18236109262555    6.45807263913360
C         8.00396162621326   -4.17730073786878    5.33687725798684
H         8.69436365573583   -4.81104653905011    4.80163511934119
C         6.62671549416386   -4.28135040831369    5.09225586266398
H         6.27300013755180   -5.00051585519415    4.36696719596819
C         5.73049830248801   -3.49112644168210    5.75415313699517
H         4.66951575320738   -3.56596589593384    5.57187787310586
C         6.16014953616543   -2.52900057181667    6.70913295473612
N         5.52886283117135    1.34898731010078    9.37918331811105
N         7.36391287385256   -0.67192287153690    8.61204409000521
O         3.66157491451009   -0.14342391709339    8.15830705754898
O         5.29812912731132   -1.81013288218700    7.31269160987219

