76
CSD_code = LUQJOX | q = 1 | S = 0 | Stoichiometry = C30H37F2N4OPtS(1+) | MND = 4
C         2.96084598961505   25.43929030416196    4.98034567184792
C         2.98338835103124   23.11887068108500    4.51180835971654
C         5.64614276726809   25.12017891986188    9.11197803336729
H         4.99588816535104   25.86496011043608    8.67266926046037
C         6.30224014959747   25.37848119898221   10.29570239722956
H         6.15203869108180   26.33408337204220   10.76915632835273
C         7.14454425579786   24.41798131122854   10.86161790899618
C         7.25939940177448   23.22037078706835   10.16477206131649
H         7.89001579612401   22.43536034933696   10.54219148555471
C         6.57071588827640   23.01217422440972    8.97513924706005
C         6.64873217781183   21.77434240745290    8.19403719176238
C         7.38278322159629   20.65126119172789    8.55927843404498
H         7.94154367213401   20.66557008675914    9.47787646243981
C         7.39352427784623   19.51714447547114    7.75290810540215
C         6.63961019488758   19.58109944619502    6.57829758944943
H         6.59631739533535   18.74539467224523    5.90021598901871
C         5.93034210885905   20.72320104163783    6.26896495778702
H         5.33543313620713   20.79022434555703    5.36908630071903
C         7.87335085680225   24.70190823822500   12.15610771067851
C         6.83460204559159   24.99854446948667   13.24795768916349
H         6.23650282292347   25.87215766804431   13.00624879365001
H         7.34055635434202   25.18582391676126   14.19102946677643
H         6.16723128033000   24.14974167338603   13.37961383071994
C         8.77718317495832   25.92634321065597   11.94785387542436
H         9.49672872846987   25.73825069725428   11.15403520225154
H         9.32399366155851   26.13559340256244   12.86308513947388
H         8.20167818252582   26.81000652280479   11.68832264621046
C         8.74013906215918   23.52628305631902   12.61236473428929
H         8.13757684194658   22.63989386341048   12.79742870577672
H         9.23619437522343   23.78851456767482   13.54303031025024
H         9.51121418459971   23.29629778740121   11.88051980492069
C         8.16709640288242   18.26292427586062    8.09796084386810
C         7.17737295897022   17.09367714581465    8.20985692481818
H         6.43822785789304   17.29305344973844    8.98266854423457
H         7.71321865665032   16.18615961607313    8.47427553283249
H         6.65636447608542   16.91778249892378    7.27333500936711
C         8.92826030342419   18.38555374898392    9.41991945160692
H         9.66280058426276   19.18686665236327    9.38048025823274
H         9.46163060308485   17.45830092792956    9.61181291923507
H         8.24932638636827   18.55438666756280   10.25279965575766
C         9.17807796432529   17.98696903285564    6.97500632156078
H         8.68442339007678   17.82258990189730    6.02169465720871
H         9.75529632831150   17.09802455858913    7.21413422828158
H         9.86556370993611   18.82314792110511    6.86727004614856
C         2.16804123257546   22.07842881994271    3.82929255394995
C         2.05389955028697   20.79943529549978    4.37682619334052
C         1.29203419983870   19.80569025245930    3.79322343119231
H         1.23094662627192   18.83952771159148    4.26740073993342
C         0.62298140154770   20.07660093340995    2.61190510806895
H         0.02775334345797   19.30892488794091    2.14432509953301
C         0.71727564952667   21.32758878471324    2.02750109721514
H         0.21055459981666   21.55694411498031    1.10409797558493
C         1.47808112392373   22.30743745513941    2.63870265374018
C         1.96687858995187   26.63117592913531    3.13864065639574
H         1.35012805668468   27.53100416723279    3.11266798598036
H         1.32725971501797   25.75081896333797    3.07488988839658
C         2.95252863664911   26.62564837161372    1.97553826069789
H         3.62664776028178   27.47756216610381    2.02834470817123
H         2.40747242340383   26.66945512977705    1.03798829526396
H         3.53790900629870   25.71070498660428    1.98894327084563
C         2.98738762403381   27.87199468608466    5.02284503305205
H         3.10232700718605   28.60271196292544    4.22039943909620
H         3.94157904703798   27.77913787618893    5.54858699046379
C         1.90610866626287   28.32983430510419    5.99803098957982
H         0.94848215552387   28.42390379258481    5.49238398199300
H         2.17469172125212   29.29542976782318    6.41578950682223
H         1.80201241378683   27.61574106035882    6.81046736920442
N         2.54388575050725   24.33942178949231    4.37600733840676
N         5.76795196703691   23.96774413869142    8.45105718029334
N         5.93117845861745   21.79367713333357    7.05480487824785
N         2.65494867960209   26.60062533282332    4.41719313155174
O         4.03787689779279   22.72357241288606    5.09392272126817
F         1.57212367816637   23.50076091450552    2.03920221704004
F         2.69016080789702   20.52119116505487    5.52936110258177
S         3.74135041534165   25.47731782954454    6.52977853963636
Pt        4.87972596017451   23.49460346566313    6.76532357520693

