57
CSD_code = LUQMAM | q = 1 | S = 0 | Stoichiometry = C20H31N2O2RuS(1+) | MND = 9
Ru        2.50859939554191    2.96217391406354   16.51327277275175
C         4.79949972976992    3.59168849223565   16.26566920335006
C         3.94128924776809    4.71887280156077   16.17393167279723
C         3.06006427945366    5.06562350355595   17.25454039752168
C         3.03005677045628    4.24366390205265   18.41632267038128
C         3.75571877815289    3.02025446131345   18.43704661258621
C         4.60945230871218    2.68059785841071   17.34245670558358
C         5.42561346929938    1.41506511682342   17.38628111108617
C         3.71900437443913    2.17743703116774   19.68235636177014
C         2.30792679844036    4.64454524552505   19.66847799407860
C         2.41375926925300    6.42704674155862   17.21767677472874
C         4.08003578966728    5.65014464744475   15.00005546269088
C         5.94135423207781    3.41616349266441   15.29746713912503
S         0.47587729212965    2.50642313853378   17.39592970139887
C        -0.42326518406477    3.79867313088030   18.27954224852169
C        -0.91229894405153    3.56503368409519   19.54815861616277
C        -1.65730856101454    4.55510433935948   20.16936438679405
C        -1.89738369302686    5.75350332598819   19.51569500602931
C        -1.40662148086288    5.96975840040173   18.23627291161478
C        -0.66401425215588    4.98240382107405   17.61070451800050
O        -0.43242202650525    2.12624196553932   16.30764767827862
O         0.79979201220006    1.45216293399131   18.34901040555281
N         2.36902531309695    0.87279721303207   15.99815255751178
C         1.62540759787338    0.67868020049696   14.74200837108659
C         1.87681980530762    1.89478889117418   13.85136448642393
N         1.48298562165831    3.08521999843741   14.62248437419016
H         4.87241131597438    0.60438224791322   17.85444820742820
H         6.33463601179248    1.57969136984175   17.96658729659136
H         5.71774253604916    1.09711826010286   16.38854161940993
H         4.49794439675563    1.42412530920000   19.69363137915477
H         3.85336005799505    2.80095871868415   20.56331126301446
H         2.75227286839104    1.67702853881335   19.76146338792643
H         1.57349305646939    5.42531251968561   19.50837719005940
H         3.03620443689396    5.01101485621202   20.39397950454785
H         3.14415370869618    6.15094024225552   14.77050269720471
H         4.81625463020067    6.42200519376335   15.22840436519899
H         4.40780865509103    5.11877381209525   14.11065323668206
H         6.76757949727149    2.89854407473427   15.77642951148708
H         6.31018391508425    4.38546689007612   14.97336015020021
H         5.65302516804284    2.85072099916453   14.41123922834399
H        -0.71580799455207    2.61551655017011   20.02158948561431
H        -2.05328695205194    4.38854489131733   21.15907929625367
H        -2.47710223172977    6.52249601115460   20.00266608403826
H        -1.60852143690727    6.90075565210786   17.72890455112806
H        -0.28196335554383    5.10975971670066   16.60684359968575
H         0.55752799097778    0.63614037310539   14.97797293465851
H         1.92010055611771   -0.24363220856831   14.23367062433709
H         2.94156810184588    1.97384231124571   13.60165101108820
H         1.30034433856920    1.80579912551747   12.92437016175694
H         0.48265614613333    2.97323931737586   14.86413802942836
H         1.59301143916424    3.92202972200182   14.04859942647989
H         3.29689742041191    0.45266898850796   15.92363698879717
H         1.87653549792477    0.41556973191614   16.77332176687066
H         1.79356436579627    3.79282904757061   20.10516822898811
H         1.83057324878703    6.57227644632191   16.31101472552762
H         3.19107050912531    7.19164546520150   17.23982611655539
H         1.75219408783356    6.59776755030502   18.05812785101095

