85
CSD_code = LUQMOB | q = 1 | S = 0 | Stoichiometry = C40H38AgN6(1+) | MND = 2
Ag        1.84245075767140    4.01259057478035    5.21511988164136
N         3.77840902954032   -0.05680207233900    3.29715357179027
N         1.23507434439705    1.25437084947555    6.37978550784077
N         0.12382735105081    2.60979002131755    7.60928228345780
C         1.63110560542823   -0.15168839222213    4.41958330285880
C         0.32000107052151   -0.68946540880316    4.40498376629606
H        -0.38912968136063   -0.37588477543115    5.15738778823280
C        -0.04729725164811   -1.58801752904599    3.44915842433547
H        -1.04693978234770   -1.99488048982086    3.44642394517472
C         0.86400011570455   -1.99784881616442    2.45227477289308
H         0.54376742837420   -2.71724741442271    1.71454197808731
C         2.12570441466741   -1.48866830523002    2.41629878399331
H         2.83918422572353   -1.77712854576928    1.66170527089563
C         2.55087525916510   -0.54892055762891    3.38950204502565
C         4.21454082113278    0.81094691251247    4.19845301240381
C         5.53913275593748    1.30612017178165    4.07150826410401
H         6.12524614572008    0.94519182627990    3.24138090857382
C         6.04209999309932    2.18387742342930    4.98243375575932
H         7.05247155054405    2.55133738013360    4.88695475366099
C         5.26419094521542    2.59646616439552    6.08517658580268
H         5.70453016814373    3.24718699500013    6.82529914555221
C         3.98106130939412    2.15672376158493    6.24069446239398
H         3.43463006709554    2.40696401736970    7.14139421911502
C         3.40241976740691    1.27074032927826    5.28930471288363
C         2.09138775442498    0.77555923850637    5.36226610091023
C         0.67556614035696    0.50363658762172    7.37856650872182
H         0.82999494489071   -0.55229218605128    7.46142060867126
C        -0.01887022666958    1.36626805527675    8.15894789685610
H        -0.59352368985823    1.18829214791253    9.04423892721739
C         0.89550493537388    2.55793892985180    6.50936581524276
C        -0.38164550158101    3.82856226457553    8.19252942894988
H        -1.14071882557895    3.56760798262934    8.93301017733180
H        -0.84529846489217    4.43762528135405    7.41055470245010
C         0.75158770562915    4.61644569936947    8.85746117127323
H         1.29064325490289    3.95740673852908    9.54328769586017
H         1.45527391700665    4.94271738334871    8.07910895161955
C         0.23932124173049    5.83058373529405    9.62599574879583
H        -0.45871279452603    5.49954629115846   10.39738603875121
H        -0.29567113128202    6.49630507377868    8.94789728933531
C         1.38519402027244    6.59575222080055   10.27591897136763
H         1.92994121205079    5.96039213523070   10.97054900957560
H         1.00255947690585    7.45189367995064   10.82349064447378
H         2.07998794852507    6.95722407067842    9.52038764027003
N        -0.09230045263984    8.08171329582721    7.13329735913543
N         2.45085869160080    6.77050322572690    4.05056024573565
N         3.56193502934073    5.41493836385154    2.82107361360834
C         2.05498726700169    8.17657643846148    6.01082661409929
C         3.36613186430096    8.71425501455062    6.02548908939078
H         4.07527514733858    8.40063024514347    5.27311909445113
C         3.73347976822400    9.61273576736355    6.98136706582298
H         4.73314995009015   10.01953016793784    6.98413857271303
C         2.82219790944070   10.02259141575846    7.97825062469099
H         3.14246287598315   10.74193995786892    8.71601906984331
C         1.56046896711593    9.51347005973122    8.01419878363001
H         0.84700651584676    9.80192220430789    8.76881191821104
C         1.13525147759292    8.57379467223227    7.04094577499696
C        -0.52846897983924    7.21398708082784    6.23200078758936
C        -1.85306297904659    6.71881752297008    6.35896366855454
H        -2.43915389019779    7.07975143720907    7.18910147978250
C        -2.35604650330946    5.84102126485001    5.44807998656095
H        -3.36641830078063    5.47357736957094    5.54357952986900
C        -1.57819508916674    5.42843037347424    4.34530218545282
H        -2.01858392212124    4.77777381583212    3.60514787719854
C        -0.29509488915488    5.86828153585465    4.18967750665228
H         0.25113819462170    5.61838326125512    3.28873952042827
C         0.28360184782207    6.75423998022301    5.14110151183901
C         1.59462559223447    7.24940790221654    5.06808766955949
C         3.01094850720263    7.52125493449425    3.05211251699573
H         2.85694891732571    8.57726127850652    2.96945077774881
C         3.70525882059170    6.65853011129599    2.27172415516606
H         4.28026168874939    6.83649388956645    1.38665916484122
C         2.78996984010622    5.46682498034846    3.92077915227297
C         4.06742792225561    4.19613246906594    2.23793308147547
H         4.82667855367702    4.45703034399954    1.49761570403677
H         4.53085625207164    3.58703539134914    3.02001493579981
C         2.93426122355561    3.40833961163548    1.57280740325495
H         2.39536891974024    4.06741426165461    0.88688523227448
H         2.23043055659835    3.08208584402952    2.35106667386763
C         3.44660763480003    2.19418597615016    0.80436165321325
H         4.14470616573496    2.52520879995663    0.03302314613821
H         3.98154763924899    1.52849928211514    1.48253549787772
C         2.30079132558135    1.42899603236794    0.15436995178829
H         1.75607585164996    2.06434459022482   -0.54029652548007
H         2.68347149642711    0.57285846376085   -0.39317353592802
H         1.60596426412937    1.06751191615878    0.90986699439924

