106
CSD_code = LUQNOB | q = 0 | S = 0 | Stoichiometry = C44H58IrN2P | MND = 8
Ir        1.10691448200533    3.25243796847124    2.53116027959392
P         2.73250898293105    3.37625289653577    4.34130778031509
N         0.30759027357504    4.48253032217696    5.26807961127440
N         1.53798803694827    6.07809561685390    1.42875545835716
C         3.79879537648292    4.86608361095181    4.08587020588232
C         3.72219500946666    5.97936526740000    4.94591284753540
C         4.16061321288234    7.21145668750101    4.46782220348086
H         4.03922603758615    8.07524295435958    5.09798041995553
C         4.74333903322208    7.37259670575728    3.22332932418094
C         5.02254165931292    6.21273348447138    2.51848439109608
H         5.58289998662119    6.29422839270416    1.60367119142640
C         4.61771865601404    4.95384440735947    2.93890522366723
C         3.34658685526038    5.95707329648965    6.43107430195553
C         2.12153873705221    6.83899752163425    6.70106422822458
H         1.25551328328024    6.44625623008509    6.17643026117241
H         2.28565705391160    7.86405494910109    6.37991098608498
H         1.90216182348751    6.84803220665208    7.76654500551510
C         4.55986605839577    6.51422967034086    7.20486120912067
H         4.36498486853636    6.47421636939884    8.27450947235395
H         4.78075376153532    7.54553550814905    6.94852304367082
H         5.44342745871312    5.91542100226042    6.99328651057036
C         3.08172329128068    4.56972437466624    7.01716408931654
H         2.11088893419955    4.18836939365611    6.71893714886929
H         3.08485262120977    4.63771987269340    8.10432508738990
H         3.86240684621648    3.86861143800039    6.72592470150259
C         5.23830317750022    8.71982449179388    2.72163069670583
C         4.49029245757898    9.88872575618997    3.37000959214632
H         4.79994938418597   10.82346147378332    2.90705214472034
H         4.70713867057999    9.96271973399846    4.43250727835172
H         3.41913862538040    9.77619475749939    3.23075156358280
C         5.07047985289349    8.83941253444699    1.20180164886227
H         4.04486273474083    8.62664513587477    0.91482809569716
H         5.72919355839000    8.15969988275713    0.66881254100840
H         5.31386835103964    9.84999454536907    0.88076713621759
C         6.72931853722182    8.82455280369658    3.07718395894958
H         7.29200534750832    8.01766511631133    2.61357216597449
H         6.86817711441376    8.75838288358999    4.15416842522890
H         7.13434776317389    9.77354678593536    2.73186423087430
C         5.21175135324216    3.78150812856813    2.15043071797216
C         4.59008409504070    3.72234390297840    0.75110740623461
H         5.02534392813900    2.90463063354610    0.18014885176330
H         4.76162293001465    4.64901336111007    0.20913984928910
H         3.51487204128213    3.56408281807735    0.83510631421553
C         6.73285383421030    4.00773874298826    2.02930371537366
H         7.16898794953546    4.14731271241634    3.01594314753877
H         6.98288954886625    4.87070206782052    1.42085922172298
H         7.19864509947377    3.13973215268625    1.56724130665110
C         5.04836545950163    2.41498667739692    2.81511098702745
H         4.03988400974424    2.03858570031885    2.69043585619031
H         5.28594935769002    2.46470378152320    3.87634026632159
H         5.72679455628448    1.70118856738801    2.35007451451680
C         1.12701602612576    4.08921754254645    4.41754022036256
C        -1.00532931227881    4.88213487821124    5.10803049670162
C        -1.85959991561869    4.72085135494696    6.19936164142940
H        -1.47893907423072    4.25427577442844    7.09557385516851
C        -3.17424571561285    5.13480496010987    6.11608261976829
H        -3.83475492165982    4.99440845230774    6.95946935263328
C        -3.64654527669639    5.73446337132969    4.95916941270738
H        -4.67326068960319    6.06396529730999    4.90014473865245
C        -2.79686729498180    5.90987576538730    3.87831571475491
H        -3.16266277871344    6.37798480631251    2.97497804738936
C        -1.48523600752184    5.48342647158205    3.94361056381810
H        -0.81797799808635    5.59527534388296    3.10117462023138
C        -0.37865673075754    2.23666665156526    1.11672382112272
C        -0.83971056627336    2.00272132319267    2.44104171507443
C         0.18613678785712    1.29012638630299    3.12394541105462
C         1.19948073507381    0.93211676115831    2.17340598732565
C         0.87801907900305    1.53948580842847    0.94430293699198
C        -1.19525413168789    2.80923063281310   -0.00199765614500
H        -1.78258800166280    2.01914983035887   -0.47575245678776
H        -0.56187209434532    3.25979071910585   -0.76451129733754
H        -1.88433660226043    3.56872244433801    0.36315997461403
C        -2.20748791846738    2.30596021143394    2.96673151523040
H        -2.63025234557122    3.18982780585805    2.49294302099347
H        -2.19378018688277    2.47653774264652    4.04181943953008
H        -2.87489009520033    1.46349719225567    2.76792621986371
C         0.07482429392607    0.70221705823047    4.49793274972376
H        -0.59159694432496    1.29377890155903    5.12380093720737
H         1.04873626552171    0.66202408915908    4.98628660354477
H        -0.32041558585780   -0.31493819562749    4.44556768629110
C         2.28987568275114   -0.05800849275278    2.43392973172693
H         1.88125067697657   -1.07095245896404    2.40246724678029
H         2.73305582435290    0.08961239469099    3.41861792060893
H         3.07680806241345    0.00967446455835    1.68541116024515
C         1.55460801327941    1.30853244244237   -0.37330572603160
H         2.60858472371456    1.07285599691202   -0.23901688351180
H         1.48253242055833    2.18546627005178   -1.01495831919467
H         1.08399892688086    0.47128055681258   -0.89441164324007
C         1.44210426713523    4.96547693825392    1.82099591386218
C         1.56286415679695    7.33956403542072    0.95055037361438
C         1.29275680690479    8.41439377674478    1.81166908912094
C         1.30683095501212    9.69443538231068    1.28106944573616
H         1.09849614994705   10.53408665361767    1.92812973951459
C         1.57782210334446    9.91094153722764   -0.05913079674915
H         1.58606177404485   10.91611961425915   -0.45225183239366
C         1.84060624326926    8.83975762782064   -0.89697857218568
H         2.05274012764551    9.01259076742967   -1.94173692773818
C         1.83790486944641    7.54363108038543   -0.41106443382771
C         2.10692655757455    6.36603458224887   -1.29434354565715
H         2.90187067285622    5.75105823472477   -0.87545281003605
H         2.39178402343994    6.68841716134881   -2.29218843338346
H         1.21697685559514    5.74073914198849   -1.36814556122836
C         0.97895541691356    8.16216802258615    3.25207139227316
H        -0.03808028465330    7.78412438083184    3.35699837735684
H         1.05723994485354    9.07932599073110    3.83036328587959
H         1.65335995200586    7.41490922133410    3.66740730100060

