112
CSD_code = LUQNER | q = 0 | S = 0 | Stoichiometry = C46H62IrN2P | MND = 8
Ir       -0.25548724150803    3.13823146610219    2.66978586036921
P         0.76521763842967    0.92617689677012    2.58549027031327
N        -1.74313832459311    0.62886102406636    3.76624607356796
N         0.97127799813249    3.99909883459988    5.34606597930482
C         2.09835772407025    0.84657572585430    3.86193119712186
C         1.95133808604989    0.12096387021166    5.06046541472800
C         2.76028860111243    0.46401875435951    6.14154335813257
H         2.59070397750127   -0.02908531762834    7.08283137853617
C         3.77874385061827    1.39551598980562    6.05150115308465
C         4.05528305446993    1.88911654019792    4.78541978356494
H         4.91764985217146    2.51956589978985    4.66608471293718
C         3.27759598923193    1.60452613229566    3.67434295304990
C         1.08693258785868   -1.12928270536273    5.25672128673515
C        -0.05098905024584   -0.85942109981775    6.24755813530403
H        -0.72220013786185   -0.10163640190724    5.85555114732913
H         0.33369332474216   -0.52004810473627    7.20633949928685
H        -0.62309112294595   -1.76994390539376    6.41247204370812
C         1.99769015382545   -2.23705132839397    5.82807236770058
H         1.44758217671750   -3.17436691053001    5.87791865197321
H         2.35114628085008   -2.01591152348645    6.83010294266048
H         2.86264738780421   -2.37980869941011    5.18384769333882
C         0.50519260018366   -1.70399236692954    3.96262121807601
H         0.16805959151413   -2.72367090551646    4.14405452368401
H         1.26310936220740   -1.73706178793852    3.18184450556781
H        -0.35212817094898   -1.13771559423214    3.61718963854577
C         4.70080837174165    1.73116559434650    7.21316219327159
C         4.09484851873750    1.36301834284570    8.57016553486927
H         3.13015494436325    1.84372345587405    8.69925278879742
H         4.75423319835349    1.70018030338084    9.36741843890064
H         3.97692297628548    0.28739434671969    8.67494782964739
C         5.99653702548872    0.92753596784614    7.02159369222039
H         5.78189932319716   -0.13910263620979    7.01189463511851
H         6.69220308620020    1.13445534387448    7.83230016922744
H         6.47569242848565    1.18509827836488    6.08027699904809
C         5.03000499509302    3.22927902574404    7.23388006585980
H         5.61375817695945    3.52570290377538    6.36730521240106
H         5.61283521954044    3.46878188154479    8.12086986639085
H         4.11795419808674    3.81873212092010    7.25293301817522
C         3.83220883209992    2.08009780477403    2.32588053188981
C         3.32036487865970    1.26234342239227    1.13588924746722
H         2.32338760277494    1.56915994304635    0.84060340158310
H         3.30807970282519    0.20044388801392    1.37364610020107
H         3.97289301643519    1.41094536748395    0.27728956225800
C         5.36720999883223    1.92460182525991    2.31293056792745
H         5.74041650194712    2.06969744178239    1.30130695461332
H         5.65197663408949    0.92839976820365    2.64356356425526
H         5.86712779814141    2.65665415412022    2.94032375435029
C         3.48774621624340    3.55776453046968    2.11909184909836
H         3.93006482156208    4.16381595192578    2.90680056791978
H         2.40657152949232    3.69337332863462    2.14586667140814
H         3.86977043579092    3.90395930046108    1.16060311832620
C        -0.73549599977464    1.27803166182622    3.44941541199462
C        -3.04192151961820    0.89253907469049    4.12938296507852
C        -4.00142178308105    0.01921844721273    3.58579187617428
C        -5.33431676889981    0.19383031013533    3.91071317800113
H        -6.07567069809778   -0.46289614077905    3.47813283050692
C        -5.72320963705371    1.18960156541901    4.79099289837162
H        -6.76612063193798    1.31461905713651    5.04144687737113
C        -4.76940573677904    2.01397353295968    5.35800660713857
H        -5.07091992187737    2.78101825205208    6.05770721463402
C        -3.42540421224024    1.88656069476551    5.04042405892365
C        -2.41305508151277    2.79292371148658    5.66424700719126
H        -2.17507174841233    3.61934998421308    4.99349862107719
H        -1.48579191794479    2.25795967331189    5.85531100242865
H        -2.79347972186068    3.20714366073932    6.59576814041525
C        -3.56113527396769   -1.07252764353784    2.65927017024766
H        -4.41272140079229   -1.65368144905336    2.31431399702930
H        -2.86353668878079   -1.73306580003254    3.17262481855873
H        -3.03880472280109   -0.66377266458720    1.79529439975927
C        -0.29541308114575    3.68358806228933    0.37767354723247
C        -0.22119664341713    4.89256755897083    1.09346009935974
C        -1.40924561908730    4.99015370436921    1.91527599257382
C        -2.22362199102488    3.85769992214277    1.65524169856174
C        -1.48579741241323    2.99661411020296    0.79131365314258
C         0.60011864591041    3.24394114456069   -0.73662736088598
H         0.21896369108528    3.62302974288150   -1.68822390127298
H         0.63812390517411    2.15775002757223   -0.80307502914407
H         1.61339159696162    3.62013283568179   -0.60768508059371
C         0.74788390405020    6.01126380563621    0.85860458401787
H         1.68738295340651    5.63970695651933    0.45503961852525
H         0.96335762048377    6.55288691515953    1.77833671435312
H         0.32906867194264    6.72130708453068    0.14135180106167
C        -1.83744089215538    6.22980429854609    2.63999994820908
H        -2.32996616192679    6.91483419937775    1.94588191832047
H        -0.98482131094648    6.74966369316023    3.07434611380263
H        -2.54011181994548    5.99934919341030    3.43897128047141
C        -3.64896513938781    3.68527959869681    2.07833154126281
H        -3.84527842232198    4.17296550401174    3.03148300152607
H        -3.91617583978769    2.63532455344377    2.18018059850813
H        -4.31134641053316    4.13105344159759    1.33175734050930
C        -2.02229853930426    1.77231186013185    0.11192822508621
H        -2.31680147230747    2.00676996155641   -0.91350270688700
H        -2.89667230052719    1.39169772591112    0.63603108128801
H        -1.27361274988624    0.97900452644695    0.07456297421809
C         0.55991378618823    3.65739707996141    4.28898970874362
C         1.51698431039742    4.60437416550843    6.42327877395486
C         1.37135325809557    4.03001065596507    7.69448307750896
C         1.92898865806715    4.68482454158404    8.78073246160739
H         1.82570386296788    4.25384943952442    9.76594197117561
C         2.61146071038779    5.87860909266629    8.62041957687019
H         3.04135019877667    6.37366822769455    9.47773568639085
C         2.74141588119750    6.43946311882661    7.36067280089129
H         3.27131289471209    7.37294688145820    7.23972722062013
C         2.20036120423656    5.81970378813365    6.24752180292757
C         2.31015702524387    6.41531582355321    4.87955129944826
H         1.31953515985521    6.67644536274081    4.50614242834511
H         2.73854089375327    5.69552529506245    4.18368610644189
H         2.92628847065838    7.31030304427344    4.89508951029990
C         0.60458981371589    2.75626871809938    7.85716998863856
H        -0.46367526933548    2.95679357049547    7.78394953092720
H         0.79641258929029    2.30960499947444    8.82991069817599
H         0.87021821350680    2.04899370184846    7.07289950503778

