69
CSD_code = LUQNEQ | q = 0 | S = 0 | Stoichiometry = C34H28N2O4Ru | MND = 6
Ru       11.99441101688484    8.14180684821160   10.77427839007103
O        10.90562366772595    6.23428960942917    8.73820387462601
O        14.06638232016539    6.38728619326778   12.03835190800454
O        12.66719704375882    9.72299558440399   11.91702361389141
O        10.53410796252525    9.50373388359485   10.25376225893276
N        10.58348393438417    7.68366730943600   12.23008972735220
N        13.29609878727021    9.00532041666163    9.40308038287350
C        11.33592154002576    6.91893918746141    9.54853882915651
C        13.27932582549394    7.02681359562225   11.50724417604561
C        12.04370444256020   10.24928823184172   12.88342062423969
C        10.91031005447998    9.72137873061186   13.51075212743413
C        10.26180868411572    8.53882646889343   13.16878475392735
C        12.57075307561886   11.55810701758067   13.34912351900477
C        13.12394894461848   12.42127888273864   12.40507714723479
C        13.63234967217246   13.64595226919762   12.78564832823077
C        13.61865144371516   14.03842252762577   14.11987291367666
C        13.07923670495135   13.16934830193456   15.06048026913890
C        12.55844470559367   11.94541859193156   14.68511986308983
C        14.16197831875334   15.37392700392226   14.52538968230294
C         9.74001109850960    6.59120886691303   12.00508466188629
C         8.35303169574029    6.73956142279256   11.95594503003395
C         7.54315453718863    5.64712681412846   11.70840584029065
C         8.09676072283123    4.39256787884322   11.51906401436239
C         9.47277182402471    4.23578004037093   11.57237331398210
C        10.29101234668975    5.32243745945689   11.81145517891408
C        10.72822619990835   10.58531891898475    9.62771153426831
C        11.90428920986207   10.94628799267148    8.96196723407725
C        13.07055944577021   10.19067131434297    8.89323025622424
C         9.59781138844243   11.54943843113378    9.64709273881116
C         9.28173990430207   12.36463699564790    8.56433725549077
C         8.20971695512494   13.23252416938414    8.63657460222057
C         7.43016818442469   13.31720937904679    9.78523831376080
C         7.74653531797092   12.49836133125855   10.86249009461110
C         8.80945650333718   11.62025024047133   10.79325841849767
C         6.28641321843071   14.28139043671214    9.85880036809681
C        14.57765545696110    8.45939428956235    9.27933480304728
C        14.72497011027410    7.11781590908575    8.91993404153519
C        15.98356203679079    6.56053239718729    8.80609309811928
C        17.11353160068489    7.32489360874654    9.05049026438482
C        16.97565183310775    8.65455925836389    9.40998681526315
C        15.72074202647149    9.22368815623550    9.51875462725677
H        10.47799885216771   10.29156573072684   14.31830577094716
H         9.39578336482898    8.28231960416101   13.78373929437801
H        13.13826375011991   12.11873824012111   11.36752630565789
H        14.05114527044090   14.30837610065687   12.04111500290313
H        13.07238777386227   13.45311383518432   16.10352868703265
H        12.16802060799922   11.27776995130639   15.43870051036061
H        15.05676951863797   15.61589284218141   13.95561576154786
H        14.40221218822931   15.39182796178667   15.58559675426099
H        13.42206078725467   16.15125025213932   14.33113535151400
H         7.91808498823138    7.72199460570994   12.07107419189571
H         6.47226923633193    5.77929841619952   11.65698608509009
H         7.46061974465600    3.54237445579767   11.32509116554432
H         9.91109540654733    3.25972221130221   11.42700748272747
H        11.36594881811202    5.20227946438061   11.86358401489921
H        11.92546055074234   11.91018446714790    8.47759556268992
H        13.88506408310817   10.63388707518347    8.31519508365426
H         9.85682412640515   12.30002292847036    7.65262244306067
H         7.96762705935744   13.85332025999807    7.78537819032297
H         7.15008226026797   12.54731459968431   11.76268279645411
H         9.05111397279951   10.98360685883544   11.63262746147040
H         6.65454878927845   15.27627936065883   10.11220929319788
H         5.57178953163398   13.98079901782695   10.62115096809800
H         5.77507702970273   14.34889898629251    8.90090467875768
H        13.84009768933894    6.52645845875441    8.72025151331404
H        16.08406392724867    5.52307619853310    8.52406963067503
H        18.09542518599871    6.88442456813021    8.96679969396444
H        17.85121705973702    9.25357380121109    9.61363681865352
H        15.61723866524018   10.25317378189494    9.83030459255965

