110
CSD_code = LUQPIX | q = 1 | S = 0 | Stoichiometry = C46H59N4Ru(1+) | MND = 9
Ru        2.95404772705267    3.30395345327791    3.09963620767634
N         1.34216907993986    3.44192274096327    1.78017546376163
N         3.80034902088055    3.10513398444015    1.19533411722312
N         4.53016579752172    4.65389148059086    3.35945321226344
N         2.06533014583232    5.01644809974312    3.90885315694869
C         0.00607070449868    3.46816175230115    1.96233830771488
C        -0.64737793992521    3.22007808729689    0.70878707222448
C         0.33472759014755    3.09111866123699   -0.24523487236502
C         1.58223236890138    3.14281917247288    0.46327239330980
C         2.92636173810156    2.86670897312501    0.17017736929018
C         3.63312131775427    2.28184036426068   -0.93542104818414
C         4.93737783586899    2.15427923635066   -0.52951848485298
C         5.03383533963835    2.71679221415903    0.79295453395286
C         6.26721750481657    2.85837980102128    1.43249260827006
H         7.08251127998401    2.34900259993472    0.93771421864584
C         6.62869636906222    3.61735085287826    2.51502259533083
H         7.68498397537275    3.61415267513910    2.74561802265079
C         5.87292546064609    4.48664851348022    3.30413612750400
C         6.49978104497219    5.45714680541392    4.16401830950633
C         5.50707827854428    6.25708254360784    4.67126854985255
C         4.27063671317694    5.72848860834739    4.16505568611515
C         2.90868581648015    5.99282145645945    4.37490068066634
C         2.14152941726603    6.99853930395102    5.05344207341322
C         0.84828878048307    6.53361008221838    5.07996403243021
C         0.82318760135996    5.29434767231537    4.35680643968622
C        -0.36847601209300    4.57123741062578    4.16714901898827
H        -1.14430939664734    4.79126642244922    4.88806606166483
C        -0.72261618687221    3.76591195546295    3.12727868973470
H        -1.74779279843313    3.42034167846355    3.11665839928946
C        -2.12527853892465    3.23502166142930    0.50557180759468
H        -2.62179719438060    2.73739068818606    1.34170824027761
H        -2.37689378430710    2.67609790236607   -0.39677506370975
C        -2.65683252892146    4.66494977985463    0.37896384289765
H        -2.41897960100434    5.24129441355082    1.27024696264849
H        -3.73554259380643    4.65432211552597    0.24687090309089
H        -2.20862473915288    5.16078316364275   -0.47812135815764
C         0.08805351796068    3.08727027891200   -1.71584395492583
H        -0.98684064304600    3.03527622094368   -1.88981622192982
H         0.53033866112663    2.21722556244466   -2.19487052004303
C         0.61954233333111    4.37797889058947   -2.34586248530717
H         0.09257792121952    5.23706588611066   -1.93727587504676
H         0.46746717514477    4.36228079829865   -3.42226899708501
H         1.67946376368965    4.50914609723597   -2.14003526710223
C         3.10333643116960    1.75863725632360   -2.22732259250890
H         3.93172983694861    1.64195895090096   -2.92625476283393
H         2.40982950673345    2.46410957521406   -2.67430063554439
C         2.43495058847942    0.39558612632275   -2.02215136696516
H         3.16232665571268   -0.32845860701311   -1.66103494061458
H         2.02532121097522    0.02997446843925   -2.96035674104758
H         1.63130059088661    0.46061833368696   -1.29146142303320
C         6.08071398761522    1.61826146764224   -1.32470809964221
H         5.71216718187576    0.89225726977804   -2.05013048559255
H         6.78350766536265    1.09376899454090   -0.67396034332498
C         6.81144687483991    2.74279189520700   -2.06422173806413
H         6.13295757742629    3.25067098714188   -2.74517398971387
H         7.64026804523966    2.33755509643003   -2.63869437801609
H         7.19924114057547    3.47629468449433   -1.36124810282573
C         7.96976904888880    5.59673408742693    4.37980929904136
H         8.44700290007996    4.61457113230115    4.38922329466353
H         8.15398313279067    6.05222437586326    5.35347414889110
C         8.60697702976985    6.46336454087703    3.28980647313543
H         8.44819257076396    6.02373935772438    2.30793565850495
H         9.67605038004723    6.55661946581353    3.46177042578045
H         8.16719259249438    7.45761265021643    3.29195781920767
C         5.73376166547374    7.34410736484431    5.66660750511822
H         5.14846133458854    8.22401408761183    5.41774447831769
H         6.78208817041690    7.64068935198944    5.63157726571201
C         5.40681023274055    6.85572957148047    7.08132784928153
H         4.38006734002978    6.50093561932155    7.14479354105430
H         5.54344037530852    7.65961134123217    7.80025256453936
H         6.06595880038663    6.03500156102425    7.35657599011536
C         2.56328762702411    8.35454324424650    5.50825543990859
H         3.37290466653800    8.29644857156049    6.23126974393288
H         1.72397453982904    8.83052076359866    6.01565353057886
C         2.96907551122488    9.21756627785234    4.31027063482641
H         3.75484938569915    8.73968962330649    3.72957565942773
H         3.31975629639639   10.19013461180948    4.64676215516968
H         2.11448192941264    9.36865135158802    3.65486758910464
C        -0.34105406049430    7.18850905064046    5.70153623853426
H        -1.24472804909461    6.92972060088964    5.14892297081007
H        -0.23378687637797    8.27261723432789    5.65112804517134
C        -0.49304474458130    6.76756985609510    7.16638880454445
H        -0.62505005550617    5.69054450970329    7.24846296192645
H        -1.35722942555892    7.25512898448597    7.60942009805426
H         0.39059002795713    7.04794874872826    7.73506651439788
C         1.81150913765560    1.46529142734714    3.91874173872450
C         3.00186632224688    1.06895821716168    3.22331674858519
C         4.13336422330571    1.58699109451146    3.93979672242273
C         3.62692312534065    2.37748577001240    5.02654718441336
C         2.19629186696479    2.27597081975648    5.02590141682560
C         0.46877521383515    0.85485074596399    3.68510574261877
H         0.22922660763059    0.79869516366234    2.62480074851888
H        -0.31855877362255    1.40749158416956    4.18960024793370
H         0.48072114745356   -0.16376038647456    4.07920094395433
C         3.05170225321350    0.03465845005973    2.14424859865277
H         3.95704064087373    0.12652599717988    1.54775702800076
H         2.19219697382764    0.11395158613146    1.48078998829367
H         3.04020232694965   -0.95928652061397    2.59602550242816
C         5.51535305257037    1.02290076288457    3.86653898765340
H         5.54371535681602    0.12457976232636    4.48841044581933
H         6.25913173563599    1.71847399756046    4.24503127552057
H         5.78557856821109    0.73940864579088    2.85306605883303
C         4.43727670864378    2.93538532384353    6.15278231761193
H         4.52632794070139    2.18284343007698    6.93891702965237
H         3.96422767798713    3.81701482355462    6.58171187327131
H         5.43909107294617    3.20626981675475    5.82621560682203
C         1.33026650615014    2.69574999628753    6.16820956671547
H         0.27862138821640    2.69692070610852    5.89580764015038
H         1.59605012385844    3.68731855614731    6.53049052534457
H         1.47272683980521    1.99015573302731    6.98957800524361

