61
CSD_code = LUQQIZ | q = 0 | S = 0 | Stoichiometry = C32H22N4O2Zn | MND = 4
Zn        1.67125492212004    1.60683245859559    4.18623999155258
O         2.27055009952109    3.28458338256551    3.59944512338376
O         1.83934193962312    0.27429819642241    2.87745092008392
N         3.04251079931228    1.42379255298090    5.55774190947085
N         3.98010423585983    2.28228768592906    5.77228099280595
N        -0.27518758945986    1.54641364616617    4.21991141629812
N        -0.99609869376587    0.79688554822685    3.45819322842881
C         3.28785692584509    3.90625719006216    4.04758923172903
C         4.10030232985333    3.44323214530020    5.13929348220237
C         5.20782417647745    4.25832379460055    5.59468876008772
C         5.99433817792154    3.87371584161544    6.68848825210664
H         5.75076961540286    2.95585255315267    7.19880984106536
C         7.04864548038613    4.64969322119980    7.10758580218871
H         7.64631939936001    4.33696491805832    7.95136086410729
C         7.35378405364083    5.84284522042981    6.45187147386198
H         8.18459983868375    6.44509353074488    6.78837614889663
C         6.59227906137579    6.24636000573026    5.38313708139894
H         6.81471214263321    7.17073634256038    4.86916481368152
C         5.51197317442063    5.46959043684543    4.93832244157122
C         4.70917783120995    5.87916173845640    3.83570914916803
H         4.95862596996630    6.80776941493564    3.34051463548610
C         3.65725668880054    5.14123489886761    3.41463189055936
H         3.04071407700553    5.45376541177329    2.58473793686234
C         3.17403330377630    0.24192572138844    6.28748489484789
C         4.36096757308050   -0.10604778440158    6.93885116003392
H         5.20768935741808    0.55812319033151    6.86786561988872
C         4.44312187272052   -1.29188452570647    7.63919153509562
H         5.36533843663105   -1.55622295321079    8.13555532555131
C         3.35374619900469   -2.14728042106715    7.70253956674048
H         3.42389657124696   -3.07569765240889    8.24902323451396
C         2.17514739174243   -1.80885943910604    7.05586366033868
H         1.32387400390764   -2.47191506521199    7.10056029737112
C         2.08351139569009   -0.62433270992092    6.35297192612443
H         1.16139386531374   -0.35527738464181    5.85334697609161
C         0.87338474212866   -0.31252613911744    2.28988168497693
C         1.18568078361950   -1.23909077980145    1.23815230815307
H         2.23402024894843   -1.36667899810751    1.01187542373343
C         0.22713731006405   -1.92303566183675    0.57336055107493
H         0.49575975050822   -2.61816597224483   -0.21047352594687
C        -1.15334130320270   -1.76157177116877    0.88346756872184
C        -2.14423289061661   -2.48562749622533    0.20360893433994
H        -1.84439438037385   -3.17428440366069   -0.57353420249178
C        -3.47095647310692   -2.32521481046943    0.51827422002740
H        -4.22860983981239   -2.88505222868128   -0.00973240579942
C        -3.84002278857200   -1.43633286177196    1.52844736457277
H        -4.88419127342487   -1.31629279816296    1.77792174928454
C        -2.88542736553344   -0.71712789718934    2.20729935549961
H        -3.16674888945281   -0.03638271311755    2.99452252127451
C        -1.52578061123400   -0.85543612682487    1.89868645352226
C        -0.51280573616607   -0.09542148014236    2.60179330141519
C        -1.00677335747432    2.46687181346741    4.97108614574114
C        -0.37474091004521    3.11037251014222    6.03419093546926
H         0.65589697257444    2.87034066539196    6.26270231811755
C        -1.05975624410044    4.03654936291893    6.79485258212974
H        -0.56065388837742    4.52847821002499    7.61656319125570
C        -2.38242620333019    4.33514939086895    6.50669730987083
H        -2.91468419666417    5.06288619488775    7.10054371946751
C        -3.01619419388843    3.70104691621202    5.44897774702500
H        -4.04426160083242    3.93753719261400    5.21694411878329
C        -2.33982890342118    2.77378536821081    4.68338487223284
H        -2.81702338492507    2.28760340252184    3.84720617395118

