53
CSD_code = LUQSOH | q = 0 | S = 0 | Stoichiometry = C16H28Br2N6Zn | MND = 4
Br        3.19974521053282    4.83656389209166    3.62011523490953
Br        5.60714958117703    2.49050800429859    0.86761077658258
Zn        5.23275309612156    4.14286691894188    2.51970311084693
N         6.53415662989963    4.09854163494691    4.12591826494954
N         6.32025203997711    4.23084001925905    6.47165968518606
N         5.87127358022778    2.26109813675214    5.35005551067633
N         6.09673744058665    5.98302583813849    2.14702311687408
N         5.39095265029627    8.23206963484915    2.26372210488656
N         4.78676328772687    6.89196122494467    0.48224419671404
C         7.42700347284167    5.15745233012308    3.98576229552395
C         8.59822380304266    5.22486663462978    4.73671363792978
H         8.78884603503845    4.46067051392332    5.47735024356254
C         9.52601359891348    6.22637678221259    4.52350257217108
H        10.42761132662916    6.25705233475289    5.11681376844350
C         9.30620844892529    7.17046444342611    3.53590199746634
H        10.03427155048497    7.94602450345401    3.35058605041976
C         8.16037170431089    7.10695181450677    2.76627991536122
H         8.00799994816294    7.81560006122416    1.96409466995853
C         7.20411901868719    6.11692848504180    2.98000825853423
C         6.26358965609681    3.55554596055160    5.28811368079034
C         6.09518352907430    5.65174089897774    6.54578300977300
H         7.02931599752443    6.22447523754817    6.55453531916976
H         5.53738534580943    5.86722987133582    7.45888522429117
H         5.49204838966179    5.96685431239873    5.69801996356952
C         6.76620221921382    3.61217585827077    7.69673924800773
H         7.09660355027028    2.59507814503021    7.50395954637035
H         5.97480908099494    3.59831148758179    8.45145715905369
H         7.60993820811466    4.18312906976270    8.09712854823252
C         4.82332617043769    1.82458718230186    6.24659118908596
H         5.18637058418861    1.05303289064377    6.93035760969660
H         4.00138491956059    1.40664739588046    5.65948263158402
H         4.43628031037835    2.66580314338227    6.81448466866596
C         6.16062183183828    1.33886407956163    4.27666424742119
H         5.30443939178333    1.20175298232344    3.60988956376195
H         6.41058269379519    0.36850256286143    4.71053501930410
H         7.00873451102964    1.69618630323384    3.69765844646495
C         5.45810619408807    7.01486655526468    1.65164443805883
C         5.46318945337390    8.36733512968841    3.69581768274972
H         5.15203007656098    7.43642441936598    4.16295190831103
H         4.76984936353083    9.15154931058062    4.00532848989236
H         6.47031153922137    8.62412790877212    4.04286420974070
C         5.41039451647511    9.47117564521728    1.52455057506501
H         5.53528840921782    9.27217767252287    0.46368834714404
H         6.25451848650899   10.07816131407881    1.86738914775786
H         4.49248602675260   10.04517113817699    1.67916095892218
C         3.49252742468770    7.50573746911009    0.28022616876791
H         3.18285173677729    8.03842042639539    1.17475601976520
H         2.75403355276764    6.72526076258877    0.07939489654819
H         3.51024221137573    8.19162151724705   -0.57046991296985
C         5.10396441260860    5.84287149571715   -0.45836338152966
H         6.11850587177702    5.48852307717477   -0.29232930204617
H         5.03105004833269    6.24926064867561   -1.46936039282832
H         4.41268186258779    4.99853492025821   -0.38190033958762

