54
CSD_code = LUQWOK | q = 0 | S = 0 | Stoichiometry = C17H29N3O4Pd | MND = 4
Pd        0.63434587524550    8.07870859771717   15.29466446502332
O         0.57053320191986   10.40612668450039   15.41281995460529
O         0.50925952279742    9.42873806082516   17.38648988317584
O        -1.16024442281886    8.10551915189993   13.65955476948016
O        -1.92513681549099    8.55695111466277   15.65191251957470
N         2.76319212822313    7.65921692016572   15.48965160470601
N         0.60872557637830    5.97277387979713   16.46093945882464
N        -1.06714397768385    8.30416152167202   14.85673015481177
C         3.37007879855321    8.81338880683673   14.81218223355354
C         2.82225209696672    8.97656587664366   13.39350154944987
C         3.06586414873101    7.70626224388543   12.58622360147323
C         2.47915794332937    6.52455088243701   13.35162961706863
C         3.11243515736038    6.43908685385803   14.74578750853468
C         2.72844326298174    5.14297377146196   15.48484954745076
C         1.22700067235561    4.90475141035574   15.68294529711038
C        -0.83899372836466    5.79140372081341   16.64407006610411
C        -1.21241011743216    4.68013383235608   17.62660012406931
C        -0.58163166385359    4.99018528274051   18.97796631616193
C         0.92670369739412    5.12411465232426   18.80129315468118
C         1.26484183970890    6.20500744536101   17.76063484325150
C         2.79075166443891    6.34202900896667   17.61005301676558
C         3.21195872596213    7.61966061517767   16.88151160452801
C         3.38550963020710    5.15375003751386   16.86035002138112
C         0.47983241063807   10.44687385479631   16.66881264934736
C         0.34007085263315   11.81384494091398   17.31873082591325
H         4.46712804753636    8.69077336130213   14.77571597850734
H         3.14201631467469    9.71185047717252   15.39468720407253
H         1.73691637463493    9.18740258216237   13.44265883507439
H         3.30417136332704    9.83472281769133   12.92292465836884
H         4.13969021464010    7.55608452451645   12.44271031609038
H         2.60151116894989    7.78721977481294   11.60279980896463
H         2.64679978297840    5.59025573381425   12.81259720860945
H         1.38997137146290    6.68014647325467   13.45026725946731
H         4.21248009055300    6.40587844301929   14.62240825201079
H         3.11695908854748    4.30961786013770   14.88785910848461
H         0.71658771843150    4.84532352216660   14.71656399884763
H         1.11579362370260    3.92547199941588   16.17302331964878
H        -1.28900562029055    5.59065774516214   15.66452920635871
H        -1.24011239863702    6.73488040029531   17.03935619908145
H        -2.29870178110353    4.63716775549996   17.71050951246486
H        -0.86860113721707    3.70861638753010   17.26478844392387
H        -0.98848773236609    5.92871573871342   19.35900341333567
H        -0.80798211342905    4.20340584451756   19.70018789835181
H         1.33617381923101    4.15777999420089   18.50136464983272
H         1.38991837192582    5.39919430236313   19.75003798500544
H         0.87049003642387    7.16509791639533   18.12599946286192
H         3.21290005432507    6.39603713559823   18.61875825021348
H         4.31313544399402    7.69166551210552   16.92466676337539
H         2.78684395244067    8.48929279455807   17.39269339329439
H         4.46772304882504    5.27126111863902   16.77059072076352
H         3.19888702864559    4.21621831347306   17.38416141288297
H        -0.72160543635277   12.02394343275477   17.42881711953399
H         0.78612877678977   12.57571942007843   16.68632985526170
H         0.80007404718188   11.80761945094747   18.30268497824313

