62
CSD_code = LUQYOM | q = 1 | S = 0 | Stoichiometry = C24H28N7O2Ru(1+) | MND = 6
Ru        8.19939525372911    3.34845951655714    8.98270268093738
O         7.04232754009123    4.85544279465727    8.01703094301563
O         6.89565093941329    6.36452588019053    6.38908013254873
N         9.00462603084423    3.76292890144670    6.15940018033120
N         8.75205924021790    2.75022741623689    7.01304784534592
N         9.86596518950597    5.41166369197285    7.64876957645525
N         9.76716541950613    4.80911381223290    8.85420873907176
N         7.59361261805496    3.94763593842477   10.76733984106902
N         9.04430594335686    1.73769225014275   10.22816144584456
N         6.64366824183931    2.12648208674791    9.05834796303400
C         8.77686104829543    1.63573298749694    6.27977361917905
C         9.04262099372401    1.95225639088498    4.94449186660328
C         9.17678691651147    3.32257286223794    4.89280536175075
C         8.56913426108093    0.26025902176986    6.80388709545546
C         9.44051399119594    4.21112603609471    3.73637890190261
C         8.95502145843560    5.13338462823102    6.57609805012231
C         7.45415741453653    5.50931639430314    7.03264183391148
C        10.63464896248080    5.43761163408877    9.65024981606510
C        11.29226210825945    6.44431809220975    8.93662408677380
C        10.77534074635247    6.41304857846153    7.66104553977679
C        10.87744772180046    5.13763964896960   11.08627702349737
C        11.08482294723983    7.26767436990121    6.49033584676073
C         8.00365510960924    3.25606989938423   11.84301330227743
C         7.48130403295121    3.47893361263141   13.10666053433059
C         6.51162757742004    4.45564129003005   13.27726982887584
C         6.10052582160540    5.17475312282984   12.16451028702482
C         6.66001475157345    4.88615674705200   10.93361284399154
C         9.11295211105942    2.26700801798278   11.59814339852649
C         8.14005103480642    0.57729296157216   10.16314028132287
C         6.74887953870261    0.98194175654161    9.75027060695505
C         5.65290734681081    0.17653261890107   10.01795249041309
C         4.40364115272261    0.55086615686069    9.54829411370002
C         4.30272176553921    1.72778724537279    8.82069349450015
C         5.43965284506137    2.48335724700721    8.60498604392818
H         9.11883924606441    1.26615296408371    4.12718200220904
H         7.62509000111088    0.18648184751773    7.33919799022086
H         9.39063960841713   -0.02686704276280    7.45941735120337
H         8.54622549988270   -0.43504637027952    5.96936818889325
H         9.53161660847991    3.60859015629835    2.83747328951595
H        10.36635220327879    4.77060053098452    3.86927261506070
H         8.62368841247172    4.91863360089997    3.59629724291774
H         9.20892219739620    5.76836547450873    5.72623009977531
H         9.94134775232349    5.02264221443258   11.62673930301762
H        11.48636518010669    4.24037348002915   11.19711694783376
H        11.42806115978482    5.96499178413073   11.52614461608148
H        12.03951434427791    7.11077167872731    9.31341877647181
H        11.87348938728822    7.96475199052767    6.75787880857987
H        10.20951059400366    7.84034276549102    6.18442805633256
H        11.42543435476849    6.67210691591452    5.64368846107705
H         7.83648314748733    2.90001971283620   13.94482493721380
H         6.09254152781153    4.64905401913519   14.25128919318486
H         5.35429653022655    5.94766810230141   12.24641528385681
H         6.35991813799917    5.41957904311060   10.03993861145039
H         9.06855368596449    1.45863234171251   12.34073908731227
H        10.07017656809270    2.77838040781190   11.72603096800180
H         9.97876605244184    1.43362976847660    9.95730783064874
H         8.10191326782494    0.05700162334818   11.12944388766532
H         8.52080247721024   -0.13741007883626    9.42854775709370
H         5.78219296381765   -0.73446203231706   10.58116954231193
H         3.53723082455701   -0.05991352408284    9.74330965062738
H         3.35591532757028    2.05995578753041    8.42803276806191
H         5.39618486501001    3.41441922904268    8.05335111808316

