57
CSD_code = LUQYUS | q = 0 | S = 0 | Stoichiometry = C22H25ClN6O2Ru | MND = 6
Ru        0.25099494091656    0.71024201624440   12.56289520452945
Cl        0.99130666521574    1.67250632226859   14.61187543526685
O        -0.24216272999127   -0.08300994791532   10.58970652191293
O         0.45316943691367   -0.32044594115376    8.48840822611915
N         1.59054549009070    2.18745166663328   10.42187838609931
N         0.86544673714785    2.39194942987483   11.53387088201865
N         2.65433033797592    0.14344506068150   10.99187318754184
N         2.13569193669297   -0.06468899904667   12.21362012921220
N        -0.35193153057678   -0.98698273745734   13.44556619358715
N        -1.58481402729860    1.46083809368653   12.75960295700042
C         0.65750986736339    3.70018925688934   11.62941247377715
C         1.26066705312566    4.34266389689469   10.53825430607441
C         1.84646806967096    3.35242111156126    9.78082391085053
C        -0.09796064650741    4.33557966855209   12.74079890177883
C         2.61209723795993    3.43714120206128    8.51161796906727
C         1.91330369998525    0.85628038783313    9.98987776270374
C         3.00847253665510   -0.80549683309253   12.88670948076958
C         4.10828590582649   -1.08423484120659   12.06262258679091
C         3.85455401761382   -0.46840315129324   10.85674516965304
C         2.80491443616800   -1.23640810410642   14.29424810465461
C         4.65824224749252   -0.42818397114765    9.60903612039670
C         0.55020923212014    0.05313304345904    9.63999049329453
C        -0.56745279200304   -2.07244270466165   12.69252245226892
C        -1.00941341420208   -3.27658856151024   13.20621864646490
C        -1.24765337602326   -3.38854067697580   14.56805251500156
C        -1.02033259247922   -2.26937190024996   15.35398719967330
C        -0.57733560688478   -1.10246971671880   14.76067703353917
C        -2.31348163324842    1.70007342349741   11.66194196297779
C        -3.59208063736925    2.22116245742101   11.69916368965182
C        -4.16911570495017    2.51938824968620   12.92510607722213
C        -3.41836109664398    2.27611353120371   14.06507834546207
C        -2.14562930361802    1.75262430654490   13.94044158904727
H         1.26501836507342    5.39427883781282   10.33770071071414
H        -1.16140875231069    4.38468594599164   12.50352210843794
H         0.26536730460126    5.34797375123262   12.89922408137869
H         0.02999118615646    3.75953087993622   13.65555047949854
H         3.62832974219412    3.06303254823100    8.63983140921297
H         2.66539809833764    4.47488655087430    8.19507853384429
H         2.12651460061229    2.85803945708985    7.72612492112265
H         2.50790534138918    0.91096443820275    9.07650010593553
H         4.97317505147440   -1.65933575324215   12.32219829264472
H         2.28477206985928   -0.45640161037974   14.84758136523446
H         3.76702579017810   -1.43087376355889   14.76134072771584
H         2.21018708289300   -2.14962604761235   14.33408918440229
H         4.10170943180172   -0.85539123728369    8.77484188381873
H         5.56763122138952   -1.00508374604629    9.75101455093775
H         4.93539151647767    0.59493797468599    9.35296330584265
H        -0.39660965562428   -1.96553439836028   11.62862539590632
H        -1.16508250314414   -4.11345003720580   12.54342203827880
H        -1.59451374105372   -4.31480082236301   14.99948857627254
H        -1.18021885605004   -2.29625630161806   16.42039955901359
H        -0.35559409182669   -0.23136881194250   15.36377087835012
H        -1.85947694441821    1.44371067128688   10.71292722350483
H        -4.12618321357963    2.38972251551105   10.77707021900061
H        -5.16547234921650    2.92869737426046   12.98766589496773
H        -3.81043012972346    2.49352804662795   15.04613378060158
H        -1.53001132261846    1.59669849940639   14.81631085894771

