87
CSD_code = LUQZED | q = 0 | S = 0 | Stoichiometry = C38H39ClN4O2P2Ru | MND = 6
Ru        3.21294184297155    2.61439807570003    4.26410330034554
Cl        4.56427980772590    3.69243581676953    5.88356279889438
N         4.92368184638614    0.53281724431630    3.12180541562080
N         4.53883035226218    1.01818052236933    4.31603290409293
N         4.79259229504089    2.50260922549538    1.81104012341387
N         4.45758207372055    3.34257451161649    2.80095488830542
O         2.45833255370888    0.26698699876329    0.84715163737964
O         2.20198704040290    1.49005244860757    2.68634825488946
P         1.58710044677507    1.83495635940352    5.66552284356277
P         1.58396992331290    4.18461437283369    3.90874982447238
C         4.45198751123610    1.10845493525826    1.89133657703256
H         4.90627927823354    0.57964020326614    1.05143889591079
C         5.71808314474984   -0.55439990089212    3.26867272830559
C         5.85037306775840   -0.75150453074858    4.62486102946785
H         6.41300743285064   -1.52106029688511    5.11186933906808
C         5.10102491980941    0.25748461222522    5.24684791438648
C         6.27922847828751   -1.31760469778314    2.12542778059716
H         6.85570074625843   -2.15633868692601    2.50537228956719
H         6.93809468764324   -0.69295569250343    1.52071957463109
H         5.48440917710105   -1.70267506212278    1.48627984938056
C         4.95139515179629    0.49321553664467    6.70361034495941
H         5.22682241464817    1.52166864924681    6.93734637063662
H         5.58882378099547   -0.19223540837956    7.25622993125638
H         3.91492665544817    0.34059520694181    7.00814607067863
C         5.42607990329259    3.15632084120847    0.80835833904347
C         5.50852324750314    4.47318911108811    1.20361752758387
H         5.94846184702475    5.28275833829855    0.65880905448382
C         4.89562371162799    4.54793160232654    2.46336263195565
C         5.88754913157618    2.48820791001836   -0.43426300640742
H         6.30621917032016    3.23217822742160   -1.10600387962541
H         5.05826210631723    1.99024443299148   -0.93664216390136
H         6.65767585041150    1.74568384698374   -0.22017885075258
C         4.77885663503109    5.73293201012169    3.34729463329649
H         4.75123042462712    6.64340556028523    2.75426077819499
H         5.63199838588967    5.77262412502286    4.02487006261411
H         3.88156796474649    5.66058631103730    3.96374386208185
C         2.85639784039518    0.92762473084482    1.78701062812787
C         0.06257194882826    1.91638684215109    4.62136493168291
H         0.17301386481860    1.08598864728431    3.91729130797232
H        -0.82513682145588    1.72007263509800    5.23014592478515
C        -0.02834278887865    3.23835206584852    3.85401500643203
H        -0.81090550917057    3.88033545775985    4.26733833827276
H        -0.26345322366811    3.04764145870303    2.80381682229218
C         1.48998577188409    0.10067741419809    6.20986365836320
C         1.83033716990242   -0.86195347404083    5.26181893207755
H         2.09857907158359   -0.54442054105335    4.26194580949240
C         1.82461306179575   -2.20222330705724    5.59422214399261
H         2.08900886188115   -2.94457808243650    4.85526007235947
C         1.48275839678824   -2.59160724078284    6.88037020616022
H         1.48273027943923   -3.63872970468161    7.14511375631061
C         1.14334748218270   -1.63906033785664    7.82665502272053
H         0.87587399341874   -1.94450988463975    8.82784957125042
C         1.14784719114827   -0.29428330284296    7.49776492458026
H         0.89028454517011    0.45052729037082    8.23772997598520
C         1.16769205678910    2.78928010043447    7.15885243687912
C         2.18070244337993    2.93506862525766    8.10554702562287
H         3.13891941632516    2.47046322431781    7.92685162350258
C         1.97534678532778    3.69580555303635    9.24028696864594
H         2.76930121976452    3.80605710044875    9.96392950148654
C         0.75842938209526    4.32716446367375    9.44062715655746
H         0.59713758256465    4.92909760253787   10.32309333090296
C        -0.25012918842759    4.19176581714333    8.50252723242889
H        -1.19801004274377    4.68896412493568    8.65151644372153
C        -0.04982246884901    3.42851109041644    7.36589352562957
H        -0.84968920376327    3.34446485485876    6.64604988057917
C         1.60711439268130    5.01191085315454    2.28433126309712
C         1.58032560300850    4.21622060831202    1.14087494330790
H         1.44450470716434    3.14802863486879    1.23452084820166
C         1.73473890965629    4.78054614349297   -0.11097896592977
H         1.71372434159989    4.15145875065754   -0.98921233216446
C         1.92124542026319    6.14755505069393   -0.23739263311297
H         2.04498558697278    6.58928855627955   -1.21534942991545
C         1.95300015995306    6.94506632996625    0.89413212535888
H         2.10033737229037    8.01142604204361    0.79956824760787
C         1.80594294464059    6.38275902138604    2.14954412211266
H         1.84446176916837    7.01061593127419    3.02878270529846
C         1.12639648489093    5.54016850870074    5.04141794358222
C         1.89818415064254    5.79621245487782    6.16770363544945
H         2.79503729156331    5.21876276965908    6.34673858180431
C         1.51317235429944    6.78253456143191    7.06019045306072
H         2.11377264441373    6.97051411103887    7.93737284284149
C         0.36447067945746    7.51894127333604    6.83170415050137
H         0.06065349516938    8.28404056380733    7.53141268234459
C        -0.39690708705360    7.28107194735954    5.69707384436948
H        -1.28700246700367    7.86498056420366    5.50965244114780
C        -0.01945200271143    6.29751997813784    4.80403465188826
H        -0.60679887708761    6.12232136138366    3.91146604491085

