55
CSD_code = LUQZAZ | q = 0 | S = 0 | Stoichiometry = C22H23ClN6O2Ru | MND = 6
Ru        4.39887792675245    7.66606375318129    5.01242837509807
Cl        6.07614799169745    6.75378720041118    6.41667347240179
O         2.80423186509968    8.50879586653285    3.86958775137629
O         2.11429240870255    9.09858270662147    1.83433965625702
N         5.40868309649870    8.86859215776518    2.54579132214566
N         5.72961576704904    8.77573676510985    3.84927704102682
N         4.48104291770410    6.72148061258166    2.24666195332855
N         4.65154861154716    6.25379714962295    3.49672527935549
N         4.11214483845109    8.96929994203990    6.42344585192675
N         3.13465968673992    6.67177397580331    6.10204433088994
C         6.80119112763555    9.53792152402090    4.04019036145760
C         7.15618512951251   10.14744725559590    2.82726715911309
C         6.24987407297482    9.70242279459815    1.89046236307872
C         7.49659998669141    9.67483435371433    5.34577538162886
C         6.12624280642127   10.01922040693014    0.44543979768388
C         4.30418696859067    8.12683943518718    2.00185690349262
C         4.82417676710593    4.93984548059544    3.39903350428922
C         4.73719849782454    4.56184666332031    2.05060289904413
C         4.51718834384963    5.71951319498059    1.33738688109919
C         5.09375851754897    4.05276884129008    4.55980513628154
C         4.33269219495437    5.93105375789095   -0.12029243912814
C         2.90183652834687    8.64350793850315    2.63687486985204
C         3.61605380291712    8.43801289686591    7.56783258133779
C         3.55246371625244    9.18095306492418    8.74518300043533
C         3.95713225762562   10.50142443919260    8.73905513841930
C         4.38128699260109   11.05873827967482    7.53720112463208
C         4.44517855731694   10.25767253763427    6.41523062541643
C         3.05390416416089    7.10907905675877    7.38282694037670
C         2.37463217706203    6.38026039888971    8.35721997842115
C         1.72633146689703    5.21269308538198    8.00498909023618
C         1.74105426447292    4.82386923517299    6.66954993789641
C         2.45703868868140    5.57809670100056    5.76224525315283
H         7.97202279617099   10.82133787003407    2.66482444427089
H         7.37918392557897   10.68272264253247    5.74237546887709
H         8.56028937367107    9.48569563364144    5.21378544117048
H         7.09969187459413    8.95637665972216    6.05920928891119
H         6.28774138137170    9.13132835341744   -0.16691384641437
H         6.87275730851693   10.76099751092557    0.17632707652321
H         5.13826529242996   10.41990350280394    0.22012191798131
H         4.25542020099652    8.29801784803646    0.92498161204670
H         4.82702680931570    3.57021670916678    1.65728358416332
H         5.98378720701324    3.45744833108879    4.36391295273239
H         4.26100887348077    3.37065634062001    4.72737661074203
H         5.26146343771319    4.64712687038052    5.45500625264936
H         3.38300247000963    6.42568168843316   -0.32247608248553
H         4.33939503588431    4.96941011567983   -0.62539131811514
H         5.13591037259867    6.54206063180766   -0.53367802572946
H         3.19152706737737    8.72422914598625    9.65230231318370
H         3.92759359384208   11.09117465047257    9.64174576244127
H         4.66937349395707   12.09611481927603    7.47686446195372
H         4.77915181122614   10.65858412538880    5.46730427439998
H         2.36034786142092    6.72652518461161    9.37781453330048
H         1.20594865367927    4.62614304662553    8.74570269180040
H         1.21522337070409    3.94126169875980    6.34200132255639
H         2.49531564876295    5.29725514879134    4.71800774101995

