83
CSD_code = LURGOU | q = 0 | S = 0 | Stoichiometry = C42H32Cl2N2NiO2P2 | MND = 6
O        -0.30782086706944   -2.04329338216192    4.35487018479974
Ni       -0.53688503370260   -2.72461658884375    6.11906678953571
Cl       -0.86501134793021   -4.71821853608435    5.37984763626848
P        -1.26989224671921   -1.01767405325316    3.85823109691022
N        -2.89386049787748   -2.28681931758482    5.80745964554915
C        -3.61516335001852   -3.07986858909007    6.56729729934802
H        -3.42205245390194   -4.14083743300076    6.46681947692810
C        -4.58383507815666   -2.60987639839904    7.46860290659905
H        -5.12541044736114   -3.31551404760972    8.07979266061985
C        -4.81504308308600   -1.26342927883871    7.56306973347932
H        -5.54460726206718   -0.86307086779096    8.25350481874453
C        -4.08649259247303   -0.38296508836856    6.73719855843719
C        -4.25558377007680    1.01700417822797    6.72209667651647
H        -4.98006461593377    1.46066166891692    7.38998657978362
C        -3.51470503519964    1.79529529708724    5.87561819990037
H        -3.64933966395905    2.86697806549375    5.86757943003329
C        -2.57103749790965    1.22463747817305    5.00756760629561
H        -1.99667100895811    1.86109569103987    4.35029305368371
C        -2.36205848262448   -0.12990122054812    5.01542583896179
C        -3.12909931482231   -0.95738338538546    5.86649556890129
C        -0.31091596194191    0.27157515895814    3.01619303074340
C         0.54227414343313    1.01812598828780    3.82247227666733
H         0.54798341140411    0.83089157557672    4.88940055528549
C         1.35509711062519    1.98104489016654    3.25350113513610
H         2.01462521717509    2.56744693612387    3.87625270460838
C         1.32239732945923    2.19219311645428    1.88328410392760
H         1.95784944219688    2.94386279663221    1.43788366510406
C         0.48129995869854    1.43839535682426    1.08143163491617
H         0.46382233930571    1.60022401522706    0.01340244593053
C        -0.33688448797223    0.47335038699504    1.64516702492950
H        -0.99254459590652   -0.12159354126621    1.02481758233869
C        -2.45595581056742   -1.74368367115498    2.69808972882412
C        -3.39880155541410   -0.94604614775028    2.06018332344128
H        -3.41538935428846    0.11884067214932    2.25143385796506
C        -4.30575625277152   -1.52200207763845    1.19076306483737
H        -5.03792551479167   -0.90649247247300    0.68812114456358
C        -4.27857098451228   -2.89095568697128    0.96798095030536
H        -4.99159205435370   -3.33711511330228    0.28983730907886
C        -3.34751204184111   -3.68567945724852    1.61587690284877
H        -3.33496426242436   -4.75245641456900    1.44943742470739
C        -2.43180209361175   -3.11370382147687    2.48209194496135
H        -1.70776868868982   -3.71996482328059    3.00749662830727
O        -0.76547067727562   -3.40585601842487    7.88335002722425
P         0.19668609741724   -4.43153408476857    8.37962953995008
C         1.28849912797477   -5.31927684329229    7.22202036997438
C         1.49760737672150   -6.67381022869156    7.22992205466669
C         2.44147883427127   -7.24444877581773    6.36206354132924
C         3.18239015907121   -6.46615013587045    5.51562487102888
C         3.01318325717333   -5.06619661422889    5.50045173746246
C         3.74188696276524   -4.18573543022387    4.67470065254517
C         3.51068330367030   -2.83928865726088    4.76915398261219
C         2.54181524508069   -2.36929179847018    5.67027333931606
N         1.82027107424448   -3.16233963906900    6.42993171527525
Cl       -0.20433451171150   -0.73128245044286    6.85708790713572
C         2.05549815020206   -4.49180179583453    6.37090559415048
H         2.34893493935958   -1.30829543660494    5.77094300724480
H         4.05240331339769   -2.13366150744215    4.15807448204342
H         4.47154700238818   -4.58609086919242    3.98435644836866
H         3.90694464998220   -6.90979598982626    4.84779604458060
H         2.57624424025252   -8.31611704161635    6.37020821914595
H         0.92345461521290   -7.31026194315158    7.88738177586955
C        -0.76222044377457   -5.72085324865939    9.22157695458733
C        -1.61545767203984   -6.46734764440276    8.41528995889904
H        -1.62117829009223   -6.28010680789700    7.34836517271847
C        -2.42830360396859   -7.43023481794398    8.98425543859236
H        -3.08784124789021   -8.01661658798313    8.36149688999236
C        -2.39563992253638   -7.64133845288677   10.35447638764537
H        -3.03116013843641   -8.39294221201274   10.79988412048362
C        -1.55450826158008   -6.88757249196390   11.15632694264604
H        -1.53711755488936   -7.04931382711814   12.22436754989479
C        -0.73622895899918   -5.92261804378943   10.59259028885360
H        -0.08063853188430   -5.32759840435093   11.21294325273630
C         1.38289938845981   -3.70553820663617    9.53960450036682
C         2.32577392176588   -4.50316086879083   10.17746406943024
H         2.34229477639495   -5.56806420600341    9.98629510700853
C         3.23266926640900   -3.92719608179164   11.04693386638314
H         3.96480977284209   -4.54270208924666   11.54961775449172
C         3.20543745901428   -2.55824711926035   11.26974342665633
H         3.91845415445771   -2.11207660180781   11.94788170704134
C         2.27437652873109   -1.76353188311456   10.62184331777674
H         2.26181623308020   -0.69675366827318   10.78827549273956
C         1.35868944319666   -2.33552421279016    9.75562232551359
H         0.63461887818140   -1.72928912129084    9.23022796489606

