56
CSD_code = LURKIT | q = 0 | S = 0 | Stoichiometry = C17H35OScSi2 | MND = 8
Sc        3.28861249437549    0.45035096535376   13.86759157100069
Si        1.93087341417711    1.88943209711348   10.84592849651759
Si        4.08172410042432   -2.93959651326923   14.61759389449645
O         5.16237162264882    1.97732258154143   13.44921418079924
C         2.60677242480405    0.36605911986561   11.73347261612660
H         3.44570595209925   -0.02469442596266   11.13388968238088
H         1.83219931844142   -0.41651349648773   11.67150711347063
C         3.01834134276266    3.42609989827738   11.23396429235882
H         3.17493117305351    3.52518560249149   12.30662762636883
H         2.55490255465177    4.34157607332440   10.87876328793520
H         3.99044888824098    3.34711429947279   10.75706510103744
C         1.90070235156764    1.72942533176813    8.93200974161290
H         2.88693752902698    1.49939854257075    8.53947263493515
H         1.56528957081985    2.64585920301816    8.45551684849054
H         1.23267957085683    0.93380746718442    8.61697497883469
C         0.14172109464120    2.30648809668571   11.39112298720807
H        -0.48022975950440    1.41681699018355   11.41295893964741
H        -0.32201432113453    3.01077164913262   10.70698055256860
H         0.11895012507786    2.75062189815877   12.38124626095055
C         4.74875925446122   -1.21257312618298   14.23498756824985
H         5.40016584855607   -1.29967092275409   13.35055791300137
H         5.40777585749476   -0.89342295831588   15.06213243782811
C         2.49846874644931   -3.21028632720357   13.56774865906677
H         1.78635064611931   -2.39925180430727   13.72616603233772
H         2.00110199556364   -4.14329547237994   13.81328210331963
H         2.73543080432576   -3.23547765313646   12.50803574914860
C         5.29561406544363   -4.36425280907271   14.18673770415134
H         5.58699231953046   -4.32673413963981   13.14139644262752
H         4.84860454892539   -5.33721043345901   14.36618137316793
H         6.20256512696738   -4.30674014208178   14.78101664458488
C         3.62654154402386   -3.15251326287441   16.46682435968494
H         4.47528693027834   -2.94310097323031   17.11090626531016
H         3.30366222906172   -4.16805330503660   16.67480357730655
H         2.81997667617554   -2.48685534188130   16.75592631201367
C         1.56730388442690    0.16335660307669   15.67399565528959
H         1.00373451542843   -0.73732339852271   15.87338579230196
C         2.75069550443875    0.55657056055437   16.33144461709441
H         3.24473704925507    0.01386304830276   17.12602521565056
C         3.05844454506714    1.87136476238954   15.92479438748467
H         3.81221089050456    2.50095582899154   16.38020762561653
C         2.07245766337278    2.28829420406409   15.00631822296834
H         1.93422980972753    3.29770551249480   14.63650690649061
C         1.14609438109645    1.22853642408770   14.85642580837850
H         0.19801562809123    1.28613851185231   14.34027469132539
C         6.20392159568517    1.58597907878638   12.55357751824586
H         5.75301017342395    0.96812852887720   11.77583294750409
H         6.94818574871745    0.99421298511462   13.10301079263434
C         6.83844811668603    2.87793395148596   12.01062616949901
H         7.92453834856224    2.81380264602815   12.03764180970609
H         6.53428292674176    3.06167763847578   10.98239655418431
C         6.30743540689033    3.97190935167729   12.94840038587078
H         5.57246967595630    4.59078542307478   12.43661097493259
H         7.09606242349146    4.61399961916413   13.33320610509329
C         5.63314459458478    3.17341965202995   14.06570007900674
H         6.35795955871798    2.91950747133280   14.85236312180581
H         4.78190151874854    3.68939488779664   14.50815067037732

