59
CSD_code = LURLAM | q = 0 | S = 0 | Stoichiometry = C18H37OScSi2 | MND = 8
Sc        4.28692219210280    2.09831306985994    2.87983384423510
Si        2.69222502318497    3.62675333291019    0.07218271469437
Si        7.74049521475611    1.55780629552415    3.64349366973896
O         3.09478828336757    0.07779308332634    2.27825453268292
C         4.29231099207792    2.94808038913070    0.80869326873906
H         5.03721328273920    3.76011837420066    0.78317516033777
H         4.69194583261459    2.17681035569670    0.13125532311530
C         2.40986956929909    5.43816566843899    0.62869877101629
H         2.51422738765046    5.54520484194674    1.70392385256783
H         1.42075365129361    5.79239228665397    0.35452019799574
H         3.13328889507610    6.10085049544714    0.16399457535368
C         1.17565224279347    2.56966256484791    0.62944520046017
H         0.92147036398998    1.81479312454096   -0.11006420827795
H         0.29385414479101    3.18903995030810    0.76423594878703
H         1.37075123428893    2.06254303342716    1.57578244810444
C         2.63520718233175    3.62636459361064   -1.84819198719875
H         3.41359787803226    4.25955206176248   -2.26214589865606
H         1.68338412194991    3.99113042028106   -2.22245523379849
H         2.78291315921376    2.62734002728275   -2.24901908921956
C         6.09315631718039    0.78630716386792    3.13290618278955
H         5.83787205893870   -0.01359382798740    3.84938633695980
H         6.24934833410958    0.27840675721110    2.16714946891728
C         9.28057981789681    0.68385003677646    2.90106015624855
H         9.35861522915152   -0.34437926190539    3.24123258849817
H        10.19969077114370    1.19059024865375    3.17870240457895
H         9.23219154001475    0.66663178340423    1.81646422381620
C         7.98536868536717    1.54245888355434    5.54559698401120
H         7.14486140802813    1.99274253893159    6.06330641357406
H         8.87712077240525    2.09293558016162    5.82906067204053
H         8.09687601916503    0.52893374553668    5.91959503918868
C         7.78174706329607    3.37171959761006    3.01818433336620
H         7.83697778556993    3.40125253343268    1.93351765860620
H         8.63807586025389    3.91708397468776    3.40270637312311
H         6.88121207069840    3.91025139911309    3.31543299740300
C         3.67079075209821    2.05863163060906    5.33429716115337
C         4.43457366054900    3.22906902341521    5.10473125093077
H         5.34174681825349    3.49700240024788    5.62793192326513
C         3.70305605340402    4.07569365022389    4.24849109245455
H         3.96074934999517    5.09698572587625    4.00204785274149
C         2.48389794036751    3.43350560873735    3.93729789459967
H         1.64053213546740    3.88878708918733    3.43561922070408
C         2.46550257353934    2.19287766129570    4.61314558584556
H         1.60378015918005    1.54439020407834    4.70792991401062
C         3.98344964315976    0.99628309165351    6.35456409108711
H         3.91628989713861    1.41632898450185    7.36074127688057
H         4.99103369508531    0.59834188979651    6.22886975207582
H         3.26911671954863    0.17566656422147    6.28967510274007
C         3.15280624129339   -0.46111509126244    0.94677372480265
H         4.19454220705353   -0.71954601930815    0.71645911619671
H         2.81162126977265    0.30864395272081    0.25309161889824
C         2.27904935977148   -1.70996040724684    0.95374508636539
H         2.56333382002214   -2.41683947575647    0.17878312309845
H         1.23018576952299   -1.44142795664253    0.82529975591195
C         2.52452608114060   -2.23180162111214    2.36595882360895
H         1.74282669388133   -2.89849890898457    2.72112827322813
H         3.48306749496473   -2.74870767718152    2.41572467825895
C         2.57771118045887   -0.93118271284294    3.16170350245179
H         1.57053501564368   -0.63146199137935    3.47743501363830
H         3.22521108388602   -0.99297073708425    4.04034024124239

