69
CSD_code = LURLUG | q = 0 | S = 0 | Stoichiometry = C24H41OScSi2 | MND = 8
Sc        4.85694409646424    9.76836631842408    2.54457020898915
Si        7.59629425078317    7.50718811503240    1.83586759088457
Si        6.48098743561625   12.12115862957959    4.71635192062762
O         4.13872465481418    7.87035882954804    3.94262950343191
C         6.84723800453870    9.23355312796609    1.66833263305665
H         6.75156193798755    9.44440077385752    0.58780836844623
H         7.60833454243458    9.94372091077784    2.02665026306424
C         9.03203751713388    7.14922059226675    0.61228269874320
H         8.70204272241483    7.23032115354520   -0.41941442353997
H         9.43474396026317    6.14976836454904    0.74789127024368
H         9.84826383943577    7.85214429961081    0.74869835242569
C         8.31957423473790    7.25714031556315    3.59449040669751
H         9.22996247304692    7.83369009850532    3.72273613865818
H         8.56877036654750    6.21584537273597    3.77467045266109
H         7.62407372520382    7.57048155769940    4.36721743505680
C         6.28601095239892    6.13396168295708    1.53460116200197
H         5.29555914920420    6.44160568902387    1.86231080248827
H         6.53787367844987    5.22063656331185    2.06554853525352
H         6.21639258468525    5.88261115968774    0.48113568388462
C         4.89246632024636   11.21224386623040    4.26153381950779
H         4.13799607358776   11.98045948014779    4.02000190690215
H         4.50977031821624   10.69846731196737    5.16026343252584
C         7.81167572191010   10.86208543915011    5.27680542883013
H         7.55246940973607   10.41266658515196    6.23100755524896
H         8.77991947205721   11.33701798647686    5.39762484512248
H         7.92142680269764   10.06182494760099    4.55022331093564
C         6.31033667146105   13.41512044569678    6.12536705557266
H         5.56914280269992   14.16991063902694    5.88008394871883
H         7.24906581386687   13.92817757038082    6.31166269509209
H         6.00375403376910   12.94755506591019    7.05636284745101
C         7.09097916513094   13.05795133656045    3.15960525146323
H         6.98143360095818   12.43962349421108    2.26980785519252
H         8.13471772421727   13.34248347769299    3.24179551078424
H         6.51852040216360   13.96645230276381    3.00064736660905
C         2.86743050939277    8.66146557084803    1.66942244973338
C         3.57658593900745    8.99319451371720    0.48234108430528
C         3.58291537158693   10.40633275001021    0.36809590881261
C         2.87160064569621   10.94816278878072    1.46657959758215
C         2.44161334272258    9.87178721303894    2.29025324223048
C         4.04193144546664    8.02242556417288   -0.56846420285843
H         3.47321235646900    8.17126601548372   -1.48924907814996
H         3.88598609074114    6.99849250338488   -0.23449517792251
H         5.09936236936551    8.14985324771284   -0.80529764811777
C         4.07514583028740   11.18450954819500   -0.81865851675889
H         4.47786955023321   12.15091472519074   -0.51699703447679
H         3.25642476907702   11.37037973362670   -1.51820413579836
H         4.85141244043648   10.63748688807356   -1.35057113692248
C         2.45067355354528   12.38582952120800    1.59909528011996
H         2.01221898654046   12.57558046093206    2.57667188744809
H         1.70245677650310   12.62836531668975    0.84082472208913
H         3.29341287851751   13.06414015228677    1.45944826998683
C         1.46683960146488    9.96317409637644    3.43649890240225
H         1.80541147950658   10.65480858060344    4.21062802258597
H         1.31970697805764    8.98234506550169    3.88835021403169
H         0.49637361087450   10.31364528125248    3.07653542147848
C         2.62869594261849    7.31220711079770    2.20447214705042
C         1.80313294986246    6.39911111107048    1.56271589653327
H         1.33165675403274    6.69185986868998    0.63665870481566
C         1.57686663589012    5.14386281222677    2.10098642866025
H         0.93182216895275    4.44429288336590    1.59152158038382
C         2.17207072809825    4.79512939551812    3.29774577434372
H         1.99333673917999    3.82348792467352    3.73269017056332
C         3.01516397677820    5.68309533818637    3.95183077205434
H         3.48049501123362    5.37359630008196    4.87383535190220
C         3.25520470049963    6.93230435731080    3.40498053391243
C         4.75790748735562    7.52198001489835    5.16962716604337
H         4.01079041060842    7.36593135026024    5.95424039968681
H         5.39587917129012    8.36476915310050    5.43747080461160
H         5.37192833921953    6.62349933915547    5.05944436461284

