68
CSD_code = LURLEQ | q = 0 | S = 0 | Stoichiometry = C21H43OScSi2 | MND = 8
Sc        5.90267344852613    3.07398516857272    8.70241059092209
Si        4.63455214332957   -0.27628336906135    9.14355635176734
Si        3.32105115021737    3.83089331968094    6.41896548477922
O         7.89920642956360    2.04338814198614    8.03236732263547
C         5.24775465884623    1.31992553264570    9.93587614025999
H         6.08885607163492    1.08034268025844   10.61120780700768
H         4.43779459691751    1.67148003443113   10.59750641018324
C         2.96188157460474    0.02069954006588    8.26719993906121
H         2.19929091405457    0.33118978865103    8.97399486372865
H         2.60359445342523   -0.87844050985571    7.77515576989248
H         3.05253198490528    0.80181593142140    7.51889383115903
C         5.86579528227812   -0.93050670004837    7.81964415632785
H         6.22349473991238   -0.11944676781842    7.19058178498054
H         5.38663669004839   -1.65947068121289    7.17384379401697
H         6.72640046781884   -1.41780935736037    8.26890073102413
C         4.38237354441047   -1.73224446410346   10.37464282920043
H         5.30347484316733   -1.98025357673594   10.89468485920692
H         4.04156878721588   -2.63093095563034    9.86924176563510
H         3.64202815190212   -1.48136599237164   11.12811092197715
C         5.05331866305647    3.11097437365823    6.63543119244496
H         5.74763705308623    3.66473475736442    5.98221090764558
H         5.04513367703312    2.07865292969421    6.25401843196226
C         3.36685128099927    5.66711213154022    5.86429292451301
H         3.85576224326201    6.29375316219359    6.60338375194345
H         2.36391448418379    6.05692354281366    5.71954700440486
H         3.90099183994922    5.78554558620109    4.92654108986334
C         2.37621836580151    3.75255291605933    8.09528176783561
H         1.51624983707033    3.09328485298336    8.03990796112831
H         2.01366969780068    4.73036928070827    8.39758406470933
H         3.03178192637913    3.37602464544261    8.88686483310562
C         2.24662945691830    2.91383933390562    5.11974032982330
H         2.67722648766629    2.98825808600891    4.12586899350599
H         1.24129030017689    3.32132666054861    5.07289500965558
H         2.16032750377236    1.85849055376315    5.35955079269869
C         5.56489568999013    5.41480552797861    9.28418737603030
H         4.69764185554379    5.98835362588810    8.98537699732100
C         6.81777332713702    5.40634775829591    8.61260569191003
C         7.74798884619023    4.73422979933570    9.44417872828030
C         7.06328695858054    4.29717260116052   10.60881525175974
C         5.71266573851548    4.73801277517437   10.51627104561777
C         7.15112948205529    6.21144169698376    7.38549667658182
H         7.61423174719886    7.15955860799877    7.67229303739864
H         6.25015821542913    6.43242710136458    6.81630039921424
H         7.85191204741466    5.69071497495924    6.73062600469835
C         9.23954123820492    4.74828829797121    9.24723947313794
H         9.72708481947185    3.92640585758619    9.76987578606418
H         9.65554842229944    5.67902314099135    9.64270010644935
H         9.50587126836444    4.69514740354225    8.19181719167960
C         7.69350660122143    3.72493807725683   11.85010645858459
H         7.00383003397100    3.06225191047489   12.37243883743939
H         7.96667986253728    4.52924968200090   12.53852632628877
H         8.59980878622341    3.16497157260109   11.62087319905180
C         4.70184499953018    4.71829787579092   11.63014189511759
H         4.66529165005598    3.75231416810121   12.13435308989937
H         3.70801618741724    4.94662654421256   11.24832669430768
H         4.95689158960067    5.47148496859689   12.38003748922236
C         8.48471159964452    2.15627736851645    6.72781958616839
H         8.47160922806609    3.20840176156240    6.43273964282396
H         7.88198487103690    1.57969573380622    6.01392356003731
C         9.88907096899184    1.57446573901747    6.83703550015701
H        10.26415406032687    1.21835193438175    5.88110190055177
H        10.58020043430028    2.31705700021513    7.23738964967457
C         9.66386875893588    0.45777896638177    7.85151911585772
H        10.57549383312500    0.14502343273033    8.35454321492215
H         9.21092544513745   -0.40671504357216    7.36578780813010
C         8.67005694283668    1.10920894556385    8.80866153219987
H         7.98658844135490    0.39101396668684    9.26638549632080
H         9.19407329935548    1.66446565004209    9.59640082809341

