38
CSD_code = LURMOB | q = 0 | S = 0 | Stoichiometry = C16H17N3OPd | MND = 4
Pd        5.30946028351104    7.88503735063949    8.08652214476299
O         3.33846810407150   10.36123562884367    5.59271937243098
N         3.89616881649718    7.81793158490097    9.77744001225329
N         3.88187133509792    8.98538662694406    7.36191748524424
N         6.71131866970792    6.80777488153161    8.75303427556470
C         3.94273334738210    7.22162875411878   10.94902726347878
H         4.89340375864402    6.78676977905271   11.24021656613448
C         2.83809630431519    7.14451581382536   11.80777360614725
H         2.93391908732218    6.63905001557361   12.75643199496319
C         1.65825931697236    7.72307500365066   11.42346716836666
H         0.78670331301254    7.69157035578231   12.06199203084986
C         1.57133646260431    8.37469237956957   10.17615818612444
C         0.40171195458194    8.99984951848979    9.71256377210182
H        -0.48280832836062    8.98310498562488   10.33160903052678
C         0.40115155243548    9.61941724153847    8.48711727441881
H        -0.49815998833127   10.10292306152883    8.13374832100454
C         1.53123970411091    9.63893626533498    7.67288805108696
H         1.50085035141012   10.13264368883162    6.71580466605892
C         2.71364343494790    9.02644711901658    8.07359656855216
C         2.73774148997816    8.38777535363012    9.36039965987989
C         4.12964824860055    9.67351904091243    6.21616292042144
C         5.61241375584269    9.52673705528837    5.82694184656469
C         6.07460006506780    8.11360971635437    6.20555985173799
H         7.16454367587218    8.02875129267255    6.09020839206042
H         5.58939512316364    7.36479427617431    5.55434520444165
C         6.38197313304753   10.54737158630078    6.68655153026728
H         6.28688626206411   10.27890916299421    7.75484097153878
H         5.98600570538169   11.54980228762599    6.53458360116615
H         7.43714457554822   10.54305433428040    6.41660987815425
C         5.81114165080248    9.83202867020174    4.34216576571466
H         6.86795838699929    9.81177521553743    4.08455184559079
H         5.40426603153719   10.81346096800359    4.11185195726719
H         5.28577719246776    9.09887212822145    3.73450513405887
C         7.50384253521229    6.10700752278547    9.20984281382849
C         8.50389673126920    5.24229616177632    9.76503208653777
H         8.75539767988208    5.56445832993922   10.77568227193623
H         9.40037931134837    5.27509559075995    9.14592200344875
H         8.12962096598167    4.21899125174907    9.79721447531186

