92
CSD_code = LURPUK | q = 0 | S = 0 | Stoichiometry = C46H39ClN2OPRhS | MND = 4
Rh        9.63064164952098    8.90144469934959    4.63558694558992
Cl       10.54474180139359   10.95485626262383    3.98102204366987
S         8.35234366951312    8.32191321948902    2.46309237469427
P         9.31115603791097    7.08934901064821    5.99884799777234
O         7.50040620959446   10.63595325253625    5.76816294033627
N        11.14711742645050    7.91669845978248    3.57523739799524
N         6.44869650768428    7.51511488441040    4.20546480770556
C         8.02186082329992    5.82635781254318    5.85188295496551
C         8.56808693267769    4.75571416151339    5.23803345352836
C        10.01016891223818    4.81745642503126    5.02972808220513
C        10.60829356872849    5.92359223496045    5.51777409067221
C        12.02318580142798    6.42016105303319    5.35953568616106
C        12.07645793486495    7.05912502365045    3.99778480004377
C        13.08166096229681    6.87342871993404    3.02072881608266
H        13.93714105083987    6.23319889201400    3.10699296177534
C        12.76402823344611    7.69393961591882    1.97343811338298
H        13.28219684241979    7.80232217992203    1.04049463361735
C        11.52631837047766    8.31504876077686    2.30159514823075
C        10.79413233896800    9.10122033168954    1.40955329897226
C         9.41213297502860    9.31773399823010    1.48900865520471
C         8.69003762728066   10.32921980438332    0.83685662127322
H         9.17104097978618   11.07815385296766    0.23388838721389
C         7.34819881681487   10.29672449437038    1.11014698201382
H         6.63311787482109   11.00935302083590    0.73902254342132
C         6.98102275785377    9.24878114918028    1.96844707547268
C         5.67429921250329    8.89662549690032    2.36581679627984
C         5.44620588692946    7.99791193006681    3.38550779662482
C         4.18674128894679    7.40870350346884    3.76142128380443
H         3.24824416214243    7.58360997106876    3.27220105861893
C         4.46020527157104    6.56242467406554    4.78650882663395
H         3.77241886731505    5.94290885214713    5.32817605884543
C         5.87192992912581    6.68474610574145    5.04049368058492
C         6.58775030742063    6.08866692469005    6.21764868898679
C         8.04296542337382    3.46811902922167    4.68405777492117
H         7.09297051069313    3.59210217648093    4.16545929655636
H         7.90445690311785    2.74039935786754    5.48855779288530
C         9.15901858466094    3.01336237697470    3.73025680494116
H         8.98632450394844    3.45196733436659    2.74627937668590
H         9.19389149460407    1.93006986562875    3.61948537701914
C        10.46248495614435    3.58365530285246    4.31223182843101
H        10.91093363742467    2.88090041987158    5.02017990913863
H        11.19227518282915    3.79518970640913    3.53085783163860
C         9.55831122135671    7.29569531806453    7.79509779385349
C         9.63753290696765    6.16674982725778    8.60409311579652
H         9.53515188072211    5.18758413178359    8.15583764593979
C         9.84790815773033    6.30564027524678    9.96288700370173
H         9.91138988665269    5.42940136283227   10.59188921624122
C         9.97928729654202    7.56912120274755   10.51951410117440
H        10.14377793037538    7.67475879391770   11.58159054876813
C         9.90448746273308    8.69399937320615    9.71504419835684
H        10.01168546277754    9.67715470419096   10.14860283067342
C         9.69580337427396    8.55923436796684    8.35355738532059
H         9.64829567336481    9.43259467537496    7.71214471947967
C        12.35302530565468    7.51157723800943    6.38842178300655
H        13.38082707375241    7.84344749178726    6.25229782031007
H        12.23450992886154    7.13726369359749    7.40314625357644
H        11.69878598788234    8.38133947954755    6.24425874898341
C        13.03388545227387    5.28045504573376    5.51144402665593
H        12.94153944958448    4.55456599823118    4.71024965464627
H        12.86433302242505    4.77447794465880    6.45974581941027
H        14.04809602124825    5.67292999091765    5.51014739054824
C        11.53065345392965    9.74072684525043    0.31090332366347
C        11.08569473972439    9.65108892219260   -1.00677819761902
H        10.19583787626046    9.07992020146601   -1.22954187943719
C        11.79271217974887   10.26428293133859   -2.02382589908579
H        11.44653469038429   10.18187560752400   -3.04391367726521
C        12.94200729555634   10.98383233609255   -1.73772520697932
H        13.48921680065363   11.46655836098964   -2.53395745027993
C        13.38532914681895   11.08452362160173   -0.42882839842368
H        14.27610089448965   11.65152005333471   -0.20219468719149
C        12.68973129873313   10.46286097806150    0.59082504703907
H        13.01352305679832   10.55575947692686    1.61606112733275
C         4.53676332225790    9.49938418443915    1.65440409086084
C         4.46197318875774    9.44242003605145    0.26449070342133
H         5.24494171472565    8.94370754187415   -0.28812975422082
C         3.38304165252856    9.99406818606240   -0.40060155248519
H         3.33030437071641    9.93594374521344   -1.47791396292020
C         2.37191709615040   10.61940050938489    0.31047730373305
H         1.53191365204576   11.05359235246949   -0.21107295593056
C         2.44273601438428   10.68728758147484    1.69211403799575
H         1.65925000753603   11.17902454944092    2.24971484822512
C         3.51515517708643   10.12804473318189    2.36214675272166
H         3.58046885829149   10.19086753780213    3.43823997912792
C         6.51028789220888    7.15483004885242    7.32299120090107
H         7.05356756688304    8.04674842223360    7.00921687812880
H         6.93771729329742    6.77886762650699    8.25025786486380
H         5.47258290186615    7.43203943662123    7.50171263869896
C         5.90415494003682    4.81128838652596    6.72020716483837
H         4.96318585333877    5.05591722881170    7.20707564342382
H         6.54368111899277    4.31742451212792    7.44878458950545
H         5.70265581367851    4.12109362230302    5.90697699396867
C         8.32492440884199    9.93288516113730    5.40184638232371

