84
CSD_code = LURTAV | q = 0 | S = 0 | Stoichiometry = C24H46F6O4P2PdSi | MND = 4
Pd        2.23385884034723    1.16033497016026    3.46982279011073
P         1.64955767002091    3.35900357588270    3.31952232468837
P         1.06596163456072    0.21177368765542    1.76123519626684
Si       -0.11132710152229    3.01131933759026    0.54295704218585
O         3.16923009707503   -0.72928694043811    3.80838728359321
C         0.27053015414664    3.86241844562384    4.51264284463726
C         2.19749330445663   -0.15682178602717    0.28434853563996
C         0.02262946611767    5.36633865479810    4.59861986188597
H        -0.17431003823492    5.80409946570061    3.62218397467390
H         0.85985214989236    5.88308679446891    5.05890851864112
H        -0.85452673019085    5.54326750903367    5.22007284251680
C        -0.98783801044394    3.15931329191967    4.00570931703440
H        -0.76726276330306    2.10168569177544    3.85652469992181
H        -1.33789598136069    3.59824280629430    3.07741933004619
H        -1.78226710838822    3.24179407001572    4.74583376110710
C        -0.31369929191041    1.17507600863738    1.01724036782243
H        -1.10633771780738    1.14303433030723    1.76374513040456
H        -0.67239323935665    0.62084842153469    0.15230215590253
C         1.07437471777975    3.98431659341560    1.68422428535043
H         1.99377854388658    4.11544455783079    1.11385236558051
H         0.66718316270917    4.98123011577046    1.84859579058316
C        -0.54468385510326   -0.79808613274806    3.71074634399174
H        -1.29504698525248   -0.02642546658520    3.54065779824489
H         0.23310192932169   -0.41787055152317    4.38479343266668
H        -1.04046450871560   -1.62448362069424    4.21711364376633
C         3.02092300212076   -1.42933643353814    0.48471579015932
H         2.44866180512552   -2.31666809235311    0.22713490518759
H         3.37164892580220   -1.52330162247178    1.50713983553265
H         3.89513716015455   -1.39917359141131   -0.16398654883219
C         0.50949454798580    3.30726459843784   -1.24327635715156
H        -0.10156900699178    2.77172665457568   -1.96379505873959
H         1.54365703258419    3.02926821509857   -1.41647058738403
H         0.41840670404347    4.36389844006657   -1.47934845606063
C         3.15154940245151    1.04214963264910    0.26072412526485
H         3.79247693511993    0.99534192868426   -0.61867051283230
H         3.79120107816309    1.03425550388580    1.14834377620590
H         2.59292058526577    1.97626949648332    0.23518941441835
C        -1.87574023517778    3.75966051722653    0.54072448754957
H        -1.86408398522755    4.81876267328538    0.77927948640796
H        -2.55937579777971    3.27412419458437    1.22936609782401
H        -2.30742911220075    3.66683685974666   -0.45053854751267
O         3.35279074831396    1.58417715405904    5.24084808092903
C         0.07882554443092   -1.29400562252605    2.40005862905414
C         1.45815250135958   -0.26394930516357   -1.04941545563580
H         2.17770647795466   -0.52158879601856   -1.82546246852778
H         0.98661683487314    0.67215093723043   -1.32819692947400
H         0.70537229725090   -1.04859327000857   -1.02742361122902
C         4.37612608706869   -0.46697293622367    3.60978829092516
C         3.19402086947728    4.45808160854588    3.52993135848480
O         4.83879922023769    0.49228482199891    3.01139614867243
C         4.29451353364449    3.69736199129513    2.78274886147518
H         5.23151385772788    4.24869405608826    2.84094839700528
H         4.04945679425453    3.56834050370248    1.72781257297726
H         4.45976084821796    2.71496162220119    3.23260448562514
C         3.60801975311804    4.60587617189675    4.99375665469155
H         3.68672245520522    3.63591150624075    5.47415270467214
H         2.91587951287464    5.23404175910854    5.54985905707530
H         4.59018885091475    5.07479407176981    5.04044556730687
C         3.05563850298107    5.86243282489453    2.92902322779015
H         2.19991917723804    6.39947153707578    3.32678719702965
H         2.98675124059587    5.84770141451814    1.84497899935424
H         3.94883399989201    6.42979735351479    3.18671735412636
C        -1.01471282746377   -1.75622227178322    1.43319255022063
H        -0.59948945040473   -2.02834875618242    0.46551854796804
H        -1.79059649079184   -1.00995258605701    1.28766614022243
H        -1.48942728236336   -2.64429925354560    1.84789779412550
C         0.95748703598232   -2.49971647994907    2.73248950154225
H         0.37049811740685   -3.21557320034858    3.30660228866238
H         1.80658770615723   -2.21038283047086    3.34178146062560
H         1.30910737504344   -3.00520639333387    1.83900329327429
C         0.57037029960980    3.30060494560616    5.90183221033950
H        -0.23687646905995    3.56327299374046    6.58475798745168
H         1.49694377915907    3.68502084235439    6.31659151457142
H         0.62758536225537    2.21299069804913    5.85804101795563
C         5.34980286885999   -1.57104738687895    4.12822596892055
F         6.61692898634535   -1.16089410972594    4.20163043404584
F         5.33251407587379   -2.62845522702539    3.28556539075216
F         5.00230710442574   -2.03872342840633    5.33189747047408
O         1.70284036402491    0.29719078631315    5.97477856636789
F         3.56570783670294    1.79409090761542    8.10968765756108
C         2.80066882411491    0.82716618264916    6.06905395447838
F         4.90827626811168    0.40036348920150    7.16160567399028
C         3.61360222881415    0.65159385060945    7.38831717935457
F         3.14418779940943   -0.31817498197675    8.17451278747616

