103
CSD_code = LURTEZ | q = 0 | S = 0 | Stoichiometry = C38H52F6O4P2Pd | MND = 4
Pd        5.25471391740159    8.88557851812761    2.88479117438804
P         5.67976464961988    7.10287744619610    1.49058916155506
P         2.97370949903500    9.04464612893495    3.16315870912595
F         5.63429673961617   13.64498095820405    3.88554006631745
F         7.53631102806656   13.36754781656898    2.91187373209077
F         8.81316990652744    9.55683447483126    6.36825363536104
F         7.20796777282679   12.56678400348240    4.88832077917811
F         9.32005787188267   10.42745586709213    4.46011191956310
F         9.70272631330038    8.33913843099178    4.82904272197821
O         6.27255390007574   11.20814629638322    1.89672823876141
O         5.40053003204959   10.76976754777559    3.88806892862997
O         7.36250755841580    8.97355102265765    3.23724295133124
O         6.54690210410217    8.58365471871855    5.26221325247287
C         2.39312838120742    4.67391166871680    0.68415794565595
H         3.07785536563877    3.82390643770354    0.69722323925271
C         1.15679822697403    4.41555978132209    1.49676909795454
C         0.88394592838358    3.28027650038178    2.23368290126330
H         1.58660902562783    2.45980678133380    2.25484471977562
C         2.06087655201473    7.11455482448205    1.24763742121350
H         2.45037486848339    7.90014402115287    0.59509665792600
C         0.25004056200816    5.47292311228621    1.46926536900868
C         1.03888071030973    6.08545147804195   -0.73192528689161
C         0.94595778425172    5.93777647634234   -3.11230463286207
H         0.55610055196388    6.28671428827595   -4.05664079664439
C         3.06387156257419    5.94456390842275    1.27965154019556
H         3.31653138735226    5.71998411450952    2.31906931034001
C         1.94578833510496    5.02823381630591   -0.70425729264592
C        -0.30629811991778    3.20434340179319    2.94215716132535
H        -0.53099623538201    2.31858563030036    3.51700803439909
C         3.15430447963746   10.19223552575760    5.81485302921753
H         2.59985312384228   11.10932104679779    5.64888318255191
H         4.19874642280892   10.35538483903263    5.57042231545232
H         3.09943452540027    9.96194704653083    6.87814170895639
C        -0.93212728923556    5.39797216116731    2.17862460263965
H        -1.63645173040678    6.21722814007520    2.15647861571106
C         6.91434134522084    6.64613324888403   -1.06107602793434
H         5.98007892484338    6.37209956176815   -1.54313300937628
H         7.38192748351036    5.75112290346912   -0.65716417500237
H         7.57576217228627    7.04152319333115   -1.83060012072770
C         0.71852370709588    6.62714579592036    0.63163218291303
H        -0.01314050551851    7.43615373544889    0.59029673103839
C         5.94725347557322    8.91535737048299   -0.51973874659597
H         5.90775941711999    9.69199747483061    0.24842888823023
H         4.93762293055151    8.65836306872824   -0.83491435131001
H         6.46410633522191    9.32942273147677   -1.38349645237276
C         2.58293751064224    9.01032646881823    5.03099601391351
C         1.81213647345039    7.69380640431247    2.63761325463582
H         1.86264121044334    6.88741987700095    3.36900213295762
H         0.80440565616581    8.10512743023906    2.69017371617031
C         1.08204810924069    8.91729210562376    5.31891332325034
H         0.93234823628525    8.97077000672776    6.39626654682889
H         0.64448565128551    7.98434542660661    4.97463820154957
H         0.54213705932768    9.74923535630377    4.87255968952889
C         4.34253465335621    6.26489946978409    0.51028273723490
H         4.09092253322476    6.89352762472343   -0.34368946774043
H         4.77141825862175    5.34619430584654    0.11076144989046
C         2.42052726356505   11.83169109080381    3.10805778597692
H         2.30031602483654   12.71282973004853    2.47909759312043
H         3.40363281736296   11.88124256329790    3.56529284342785
H         1.66356639568088   11.87524142363221    3.88731293042495
C         6.21866741733205    4.26708258826688    1.81867299101879
H         6.57384683583819    4.21035035920235    0.79230362485910
H         5.16855925241403    3.98973710361197    1.85210752244603
H         6.77170544444519    3.52743068632799    2.39648192806795
C         5.82105940078098    5.67306108920476    3.83176714558898
H         6.24852109272433    4.88919497363978    4.45529233326986
H         4.74621751345262    5.50625603768276    3.77629015807371
H         6.00434501506574    6.62975294820718    4.32421630959660
C         7.97288693427411    5.83926386368598    2.59536344418183
H         8.21236255387509    6.85981452697308    2.87671935995807
H         8.49593696513439    5.59236042090407    1.67471906762660
H         8.34866057597836    5.18076353638003    3.37743634381320
C         1.84694515201229    4.88718026900224   -3.08493932793650
H         2.15650011579322    4.42099464855777   -4.00825230858345
C         0.79483064159673   10.44467137008790    1.84891640492376
H         0.14661397501201   10.24388341352909    2.69880663091434
H         0.64929033854992    9.67534599919138    1.09544265438292
H         0.47925392966485   11.39274981853080    1.41491115136034
C         2.35432095722735    4.42756003107217   -1.87840640265633
H         3.05645430776651    3.60642002950903   -1.85752830621808
C         6.73273937697602    7.71437595097068    0.02060981956023
C         3.31706365523325    7.76297201878621    5.53727959813363
H         3.13401150019410    7.64019126456158    6.60320573976959
H         4.39259247271718    7.89929713356309    5.39753876526535
H         2.99520420192249    6.84835527295948    5.04251446808826
C         7.42005183543085    8.94326834702377    4.48751148342779
C         6.07892448022714   11.44322476321394    3.07947780051377
C         3.11341556406320   10.72271121662853    0.99219439141019
H         3.01047746598083    9.85828308639215    0.33770762129374
H         4.16759400097045   10.84975660595618    1.24487547253576
H         2.79506002541210   11.60275103546467    0.43524008843504
C        -1.20727108416320    4.25496726755594    2.91498905386701
H        -2.13112874190076    4.18468412041241    3.46925365788614
C         0.53826715626972    6.54528144657119   -1.93370897346878
H        -0.16542612052291    7.36484856897835   -1.95552151414260
C         6.46469781854154    5.64305233577099    2.44139101908030
C         6.64019380715400   12.76346807308312    3.69300256425507
C         2.26377378241326   10.57062034079990    2.25837253077449
C         8.81979394528690    9.33763238133986    5.05312125853015
C         8.11152416209468    8.24570025523957    0.41357449531988
H         8.52916036774121    8.78568855937893   -0.43536580464589
H         8.80567193987467    7.45363504738486    0.67202364733752
H         8.04030111821136    8.94420459559487    1.24080430747964

