125
CSD_code = LURWUR | q = 0 | S = 0 | Stoichiometry = C50H70N4Zn | MND = 4
Zn        7.20405040143950    4.52852441670691    4.01005151644835
N         6.72786077112106    4.87989086849763    2.09865246136246
C         7.21702274429408    5.31203159824367    0.86081680525364
C         4.19292528237252    3.23815171008243    3.95180995166470
C         7.31868757081669    6.69134548880328    0.62977589120231
N         5.39103707579713    3.81097434965882    3.50519696187383
C         5.61043425596338    4.22842290419129    2.28836363120081
H         4.88708928219276    4.08072368935133    1.48459367544939
C         2.67050335072552    1.39228196611490    4.11629094496751
H         2.38948735480792    0.38112172005744    3.86193282511618
C         1.84390198567297    2.14052433155717    4.93062202670164
H         0.92079386967088    1.71791525345855    5.29946467063813
C         7.69529812307369    4.39286099899821   -0.08357822131478
C         4.77338061953479    1.06517641519940    2.77964953800304
H         5.66415135371953    1.65128822872335    2.53231046044601
C         3.85532754059975    1.92016960348036    3.62230329572533
C         2.20421967735746    3.42830495879310    5.28419122784235
H         1.55684307622200    3.99673478876148    5.93305933400203
C         3.37920086721785    3.99275524563817    4.81351284369238
C         8.30633225514834    6.23382330224483   -1.51734160569683
H         8.72118264261205    6.59097012286073   -2.44851890437840
C         3.78062144254707    5.40495442032478    5.17421303350724
H         4.87774802760675    5.45591800386425    5.15592282377806
C         3.32553459209241    5.83056520299002    6.56899350124869
H         2.24958242633130    5.98484879147207    6.60640512287113
H         3.80882892880933    6.76589659912412    6.84316664266222
H         3.60256870681887    5.08344829871003    7.30857013103154
C         7.85643685247916    7.13296712234215   -0.56890837910475
H         7.92322593513580    8.19180503709252   -0.76980212063923
C         8.23347584128297    4.87722299981892   -1.26725718115622
H         8.60554250051183    4.18331430943768   -2.00641670896756
C         3.24309782039034    6.37263049546120    4.11493133218295
H         3.64658339518114    6.12803429722429    3.13468610704459
H         3.52297197240693    7.39606091827917    4.35656932648811
H         2.15726967888458    6.31328600487899    4.06602676433030
C         9.10236962704383    2.35615906068613    0.26248492451783
H         9.63751435387783    2.51775630747053   -0.67028646686085
H         9.08151122046000    1.28692272752145    0.46422629653326
H         9.64935835809957    2.84280087955558    1.06733726253114
C         6.82851539799886    7.67846898189863    1.66479078496501
H         6.57316171336755    7.12284356293331    2.57618829178221
C         7.67544323816019    2.90493274649006    0.18166614073218
H         7.20465375563620    2.72700034600435    1.15301067318755
C         5.56335349120388    8.38184973637717    1.16846955408597
H         5.18117491241338    9.05692579570263    1.93138819697526
H         4.79053292988992    7.65243165334077    0.93506984960878
H         5.77177761243309    8.95793268243397    0.26962751526091
C         6.86268241312664    2.16370168785331   -0.88159764391633
H         7.31888570113389    2.26678371194539   -1.86299517095571
H         5.84993415398543    2.55844678500406   -0.93279141606220
H         6.80836494498706    1.10410823639153   -0.64077439717888
C         7.91041329685150    8.69574238318733    2.02856224122151
H         8.80138766685323    8.18462363488671    2.38580468009150
H         7.55126131300025    9.35470553425013    2.81631623520382
H         8.18173413580646    9.30886766803672    1.17274586729011
C         5.23565576613421   -0.15956981650980    3.57253260956443
H         4.39703527030846   -0.80583420049891    3.81953547714017
H         5.71338391205093    0.15466306372516    4.49800376161832
H         5.95257186131932   -0.73538510249351    2.99054210153398
C         4.09606633379744    0.64753320643726    1.47358440409921
H         3.21647776865125    0.03950487755450    1.67084372324798
H         4.78314256654037    0.06770587409189    0.86096741231314
H         3.78459258063044    1.52326377887337    0.90781207180137
N         7.68024087434240    4.87989278164969    5.92144867171917
C         7.19107989715510    5.31203372416756    7.15928477331007
C        10.21517425178005    3.23815133133021    4.06829034770646
C         7.08941460243616    6.69134761577430    7.39032538938283
N         9.01706232887370    3.81097341396921    4.51490427212011
C         8.79766685511491    4.22842385023106    5.73173725135155
H         9.52101253439103    4.08072515857965    6.53550663738547
C        11.73759512297659    1.39228108914509    3.90380582862825
H        12.01861079617520    0.38112035313611    4.15816233330413
C        12.56419654555022    2.14052441583577    3.08947566545488
H        13.48730430065513    1.71791546902821    2.72063196042256
C         6.71280616310059    4.39286308955866    8.10368058129459
C         9.63471795265424    1.06517474828531    5.24044744048963
H         8.74394651455577    1.65128603742123    5.48778532077466
C        10.55277132797332    1.92016855735061    4.39779464871840
C        12.20387936652388    3.42830576239459    2.73590864201391
H        12.85125588963248    3.99673625353736    2.08704105113824
C        11.02889861358654    3.99275593135883    3.20658840116166
C         6.10177239331444    6.23382548279447    9.53744403997167
H         5.68692281205299    6.59097233411158   10.46862168139803
C        10.62747819807727    5.40495553164880    2.84588996689274
H         9.53035158934144    5.45591928089315    2.86418044039779
C        11.08256475312236    5.83056774661472    1.45110983803867
H        12.15851693937388    5.98485117177411    1.41369807352832
H        10.59927053695377    6.76589953727649    1.17693786209242
H        10.80553022889062    5.08345171424377    0.71153247409813
C         6.55166644386644    7.13296926977463    8.58901015542853
H         6.48487723051990    8.19180719610629    8.78990378427907
C         6.17462925132073    4.87722515670680    9.28735988567134
H         5.80256345296861    4.18331650448345   10.02651987920515
C        11.16500214696693    6.37263037668454    3.90517261778941
H        10.76151660646068    6.12803335012375    4.88541765071014
H        10.88512821071482    7.39606110177306    3.66353563381738
H        12.25083030130126    6.31328563832507    3.95407708554061
C         5.30573492895925    2.35616144996660    7.75761578587659
H         4.77058822323273    2.51776031796999    8.69038576989920
H         5.32659320466921    1.28692483526876    7.55587590408939
H         4.75874816695727    2.84280242352260    6.95276163202153
C         7.57958504920897    7.67847126206270    6.35530984775450
H         7.83493847995216    7.12284592594937    5.44391225077888
C         6.73266137450603    2.90493476429377    7.83843664132254
H         7.20345260211927    2.72700187336338    6.86709305149271
C         8.84474673741173    8.38185337351207    6.85162974200029
H         9.22692376204030    9.05692985007154    6.08871067984419
H         9.61756835331304    7.65243617541906    7.08502870426515
H         8.63632284946957    8.95793611858299    7.75047196191981
C         7.54542003698194    2.16370354700738    8.90170192421098
H         7.08921492502779    2.26678527955908    9.88309860528120
H         8.55816809433538    2.55844881350258    8.95289773412563
H         7.59973821216182    1.10411015051618    8.66087863652539
C         6.49768581593745    8.69574356649729    5.99153922617130
H         5.60671148963754    8.18462395886966    5.63429795399516
H         6.85683634892035    9.35470683442514    5.20378467818971
H         6.22636539556046    9.30886883862775    6.84735572875964
C         9.17244462138634   -0.15957222024321    4.44756449411028
H        10.01106565918770   -0.80583656702405    4.20056338262543
H         8.69471786167117    0.15465988760535    3.52209238338640
H         8.45552775048516   -0.73538734915810    5.02955420393125
C        10.31203127478689    0.64753247219550    6.54651338929437
H        11.19162097103673    0.03950544195069    6.34925506057837
H         9.62495517586016    0.06770418986501    7.15912963911591
H        10.62350308586087    1.52326354414388    7.11228599738726

