125
CSD_code = LURXUT | q = 0 | S = 0 | Stoichiometry = C58H61FeN5 | MND = 7
Fe        0.51406589035223    3.28168153225289    3.93777913046283
N        -1.91787913839225    3.86952655699417    2.09226990282069
N        -2.58800390753467    2.86624765840872    3.87843078380177
N         2.13073524552931    2.31621211193696    1.64783331001038
N        -0.92205873911926    6.18669565804782    5.60189212848707
N         0.44651773436072    0.37230407998715    4.41978311135119
C        -1.49236521794322    3.38970184920390    3.28392359153988
C         1.39734983303291    2.70005935712529    2.48983178862939
C         0.45395695219904    1.54767638003405    4.29168841887526
C         0.09740731384850    5.47365647846006    5.27621336978673
C         0.52013295707139    4.24138060448831    5.93386912941084
C         1.82550248440215    3.86293321959363    5.44225366009236
C         2.17225552727698    4.79052638537743    4.38942454208113
C         1.06772751398498    5.67519237074734    4.17916181631206
C         1.15191263494745    6.67212106411821    3.19951027660243
H         0.32482707602777    7.34801775680474    3.03724489559846
C         2.31201440980031    6.79893189113905    2.47024388091918
H         2.39121320270237    7.56881151183836    1.71644206914013
C         3.41666013410837    5.97125512138598    2.72093501298724
H         4.33032395702159    6.13614735768645    2.16757930626050
C         3.36388001868314    4.97707702908250    3.66553006823577
H         4.22396732116276    4.35585488441702    3.87052505489504
C         2.82616935322334    3.04023339341006    6.13390026276193
C         3.08042790200741    3.20938898055279    7.49334159730671
H         2.52440559718220    3.94786715220376    8.05157912220688
C         4.03949803539224    2.44155158630236    8.12705036785296
H         4.22189097324957    2.57896058289315    9.18311875531254
C         4.76896443096982    1.50352497580345    7.41602458059908
H         5.51587277314621    0.90336472821067    7.91474690341049
C         4.53797073550469    1.34122031888900    6.05935043607154
H         5.10780321944847    0.61479536056993    5.49635929009644
C         3.57563505724151    2.10292302410331    5.42519681455609
H         3.37329944020691    1.96872616059799    4.37126714955724
C        -0.02870553021484    3.74614677136929    7.19731499186658
C        -0.68117419970610    4.59640688060427    8.09041567002942
H        -0.81621418578970    5.63318420379462    7.82627986815571
C        -1.15665311120754    4.12020496940495    9.29771106096719
H        -1.65542663622050    4.79509319950529    9.97904195910558
C        -0.99504201887241    2.78846402457420    9.64128871711600
H        -1.36629765664573    2.41940286580029   10.58658679314613
C        -0.35541775587347    1.93137061254524    8.75944573202928
H        -0.22962870880166    0.88858991302089    9.01806247642467
C         0.12012700010194    2.40254505184584    7.55292494987051
H         0.60857723658742    1.72947044930197    6.86299250887016
C        -3.27004435373319    3.64759237129088    1.93680684317655
C        -3.69450440256827    3.02027043465082    3.07072178066915
C        -4.09313848031570    4.06661926835297    0.76900229092689
H        -5.01513440614867    3.49139728642185    0.74769044396537
H        -3.57413076682832    3.90040526601542   -0.17024764511763
H        -4.35332481640843    5.12323004564017    0.83782026659089
C        -5.07225107446255    2.55464794186596    3.38823768390195
H        -5.78520361801683    3.05400878068675    2.73768295060472
H        -5.34207544860548    2.78150838309695    4.41530652018386
H        -5.16515586001176    1.47891641378764    3.23553970021758
C        -1.00553326318980    4.51970812497508    1.16986255331017
H        -0.06670092576339    4.60499793765049    1.73598136145481
C        -0.72807073857029    3.64036997661064   -0.04811511466745
H        -0.37232734942291    2.66592562887399    0.27763568156688
H         0.04131364801933    4.10440869035024   -0.65778904659726
H        -1.61221314124098    3.50193332415496   -0.66401396302394
C        -1.45778989401081    5.92667337846590    0.78908121291619
H        -2.26189231338243    5.91258128117489    0.05954633267767
H        -0.61772688289179    6.46445017756572    0.35722748246863
H        -1.78977520295873    6.46659134629205    1.67227560531732
C        -2.53900321082272    2.33463315475671    5.22929758390418
H        -1.46844914119929    2.28230326137816    5.45788538048783
C        -3.17600892640878    3.29839754150760    6.22738799826492
H        -2.69291517622625    4.26976574200402    6.16076364492673
H        -3.03122923573364    2.91614269415446    7.23383704379700
H        -4.24231809021292    3.42070624250735    6.05605221338373
C        -3.10414628714955    0.92101609319833    5.33492827282898
H        -4.18954664478324    0.90851183709594    5.31698383088704
H        -2.77742919370768    0.48613121261562    6.27576574073223
H        -2.72566225144846    0.30189534951859    4.52572736730824
C         3.06878699761015    1.84597362012993    0.79436262447811
C         3.61701577974452    2.69618508772088   -0.17603167843083
C         4.58535521956088    2.18522370885917   -1.02590597749789
H         5.01728212446223    2.83138295834708   -1.77640524511961
C         5.00204251668090    0.87012231332526   -0.92496974250275
H         5.75748015585398    0.48980077093623   -1.59576899649826
C         4.45311762766277    0.04195707179376    0.04031701126072
H         4.78341114867125   -0.98347801246490    0.12089287746478
C         3.48626992061966    0.50946809323377    0.91232087226893
C         2.88486497121059   -0.36941424790468    1.96418532212127
H         2.99179665314076    0.08182812231437    2.95007970733201
H         3.36055999912116   -1.34639452739470    1.97156167603542
H         1.81872084102735   -0.50273005731274    1.78542140281924
C         3.16144057005621    4.11763607648218   -0.30502245963251
H         3.99230431772270    4.75691348170349   -0.59516967719378
H         2.74231771421534    4.48342238965549    0.62994466854201
H         2.39581848261752    4.19502572028099   -1.07828626304710
C        -1.23745168364337    7.42617569947301    5.09720207213001
C        -2.45472906750030    7.61357458127777    4.42187204985936
C        -2.81759450268128    8.87977726135841    3.99822955797411
H        -3.74845998207779    9.00933578524072    3.46175855772455
C        -2.01146247534885    9.97444179515892    4.25486627166800
H        -2.30357609483791   10.95837896298612    3.91813822479552
C        -0.83447007222924    9.79819301486090    4.96080707644079
H        -0.20933710344344   10.65269719105092    5.18252090068948
C        -0.43233327392985    8.54500009528942    5.38907908656752
C         0.84681755695113    8.38834862528575    6.15978513181394
H         1.66523325181116    8.09759225715582    5.49824456092744
H         0.74643672032111    7.61700719603986    6.92186405618671
H         1.11688605729801    9.32622653432431    6.64092692667065
C        -3.35404597308110    6.43774138799492    4.17641298182718
H        -4.01279361827383    6.61632752006992    3.32796447616925
H        -3.97325078754950    6.25496160687896    5.05558150917465
H        -2.76296484208955    5.54466900314996    3.99742986274081
C         0.28258366492907   -0.96141299006340    4.26383589980682
C         0.86488824085748   -1.82626343348907    5.20240302898849
C         0.70818633429033   -3.18992087759916    5.02967778381648
H         1.15230970171946   -3.86842240064937    5.74326365694649
C        -0.00747236029831   -3.69055917249945    3.95421418782286
H        -0.12063279232604   -4.75704602236208    3.83110452196226
C        -0.57572493119624   -2.82590432316101    3.03613768577550
H        -1.13156623961599   -3.21924937209634    2.19709721593081
C        -0.44483479339245   -1.45179853317443    3.16880200595695
C        -1.07169161073623   -0.53081786262552    2.16196900688951
H        -2.15888791074170   -0.57947213256240    2.23324939434090
H        -0.79751010665318   -0.83365271952279    1.15193774037942
H        -0.76294901578422    0.50265589525686    2.31754331510373
C         1.62586046960576   -1.25571023351738    6.35871086258185
H         2.34077998553167   -0.50517830314925    6.02178084522842
H         2.15856424198116   -2.03713239272859    6.89397788155191
H         0.94347026591980   -0.76457146444817    7.05293826849674

