110
CSD_code = LURXON | q = 0 | S = 0 | Stoichiometry = C54H50FeN2O3 | MND = 7
Fe        2.21771470632296    2.79700326816770    4.42822971962063
N         3.34904572951976   -0.07891963352136    4.31000447782540
N         1.22250171324619   -0.15434112140559    3.96035825348134
O         3.95977477191708    3.29025260533333    3.45500020326993
O         2.96300389568811    2.52259697694460    7.21175402085196
O        -0.07489809949163    3.06281479472467    6.16034493576564
C         2.25038076456300    0.69620675492203    4.19120510654412
C         2.77723241533263    2.72439399825132    6.09057389744662
C         0.78290716595447    2.95370024828600    5.39179222394700
C         1.57540094430694    3.36080819723419    2.26700063804234
C         2.00714212319058    4.50057200637884    3.03278209335350
C         3.31107331422312    4.38645455317645    3.63081014978707
C         3.91706601601140    5.48021060046091    4.44460735482932
C         4.02340110198300    6.76627311712902    4.07576240876952
C         3.02240380891153   -1.40579040993069    4.13195306441890
C         1.67595833181595   -1.45565553122445    3.92353439973370
C         3.96875864280033   -2.55517817079760    4.17519887268491
H         4.14866704416059   -2.87467329601599    5.20206326714692
H         4.92140854881086   -2.30347708423711    3.71991853177061
H         3.54667374350212   -3.39427870539320    3.62761559472637
C         0.84001945599785   -2.66343742924751    3.67996791293881
H         1.37414459963003   -3.54785168515817    4.01726361076038
H         0.62084691190831   -2.78079732996959    2.61840556459042
H        -0.09903862377750   -2.61302910360404    4.22304428084594
C         4.66524637726430    0.47074454804910    4.59092900810791
H         4.47882540642253    1.51674384659295    4.85278448856609
C         5.54372993871791    0.47271016791163    3.34253009978864
H         5.69404899593254   -0.52503151563835    2.93823240932183
H         6.51396675249741    0.89495289610622    3.58829339364457
H         5.07904249925697    1.09625904148173    2.58376544303218
C         5.32722502260247   -0.19667998180151    5.79412129185318
H         4.60224265546368   -0.32745963957393    6.59428084895527
H         6.11893933929403    0.45015189224314    6.16183072438842
H         5.76518898731493   -1.15909782712130    5.54790383262909
C        -0.14574936378405    0.31277196070764    3.81396397029389
H        -0.05104080442021    1.40218658871622    3.74032131352349
C        -0.97335965376929    0.00068167599043    5.05961588606275
H        -1.16408159564902   -1.06361394536292    5.16970258529834
H        -1.92803590646299    0.51405008532974    4.99001676193543
H        -0.45547437674080    0.35571224345289    5.94695516602610
C        -0.81718524551638   -0.18549884390795    2.53650023086931
H        -0.13916132956798   -0.10029274256302    1.69118905285638
H        -1.68218762468125    0.43925937213604    2.33120346790103
H        -1.15247050005266   -1.21439215467449    2.62343689220264
C         0.16067922332538    3.25841086362257    1.86662312767506
C        -0.20100374970131    2.78016215861651    0.60337870908946
H         0.56631999369886    2.49003518674388   -0.09923730560621
C        -1.52693806432179    2.68813383879288    0.22481551372682
H        -1.77458121193879    2.31846089211600   -0.76027943964050
C        -2.53467407137109    3.06985506071931    1.09333545863200
H        -3.57046317592494    2.99910583248572    0.79554919421729
C        -2.19603510366666    3.54487775376533    2.35079813021087
H        -2.97027772154295    3.84502499001052    3.04219605265944
C        -0.87330984812225    3.63622134037401    2.73060725287087
H        -0.63235023060504    3.99586367941248    3.71908810815268
C         2.53639376058246    2.76844727616366    1.29131551410338
C         2.66299552812545    1.39464557219249    1.10604366759289
H         2.08281995869260    0.72565801946852    1.72114669839196
C         3.53029520950424    0.88163493119643    0.16049036159241
H         3.62172999041133   -0.18932057318782    0.04126182810657
C         4.28354990705069    1.73306658908775   -0.63123495126397
H         4.96709940301292    1.33199426837299   -1.36553711454769
C         4.14396747906073    3.10134993227197   -0.47886429574276
H         4.71386600353460    3.77481688543057   -1.10359163681478
C         3.27089786968506    3.61301026473637    0.46357782992573
H         3.14431378466935    4.68028704668741    0.56130120811682
C         1.18247341385437    5.70573260616176    3.21120637548848
C         0.64296249516077    6.33207332166124    2.09006895797429
H         0.82495907420737    5.91624923556614    1.10980876541134
C        -0.11555172024519    7.47918791180929    2.22402428850278
H        -0.52704557012045    7.95384228463152    1.34536702489454
C        -0.34897980464120    8.01839943632985    3.47714232052813
H        -0.94435509290253    8.91365148387306    3.58161587033692
C         0.17652508289076    7.39801329329932    4.59963827367782
H        -0.01796551252031    7.80547239841415    5.58208621989840
C         0.93438469558294    6.25100875057585    4.46872443920372
H         1.32186492946864    5.74503071829135    5.34311545209439
C         4.45127864966312    5.03638846087673    5.75431611947276
C         3.93794022054607    5.52197325750662    6.95221387939559
H         3.11866121990305    6.22480585096996    6.93812883458932
C         4.46158630918178    5.09817371024482    8.15856422126047
H         4.05093797850040    5.47658816735036    9.08321493006341
C         5.50357032738060    4.18673335779053    8.18505356395456
H         5.90872886269164    3.85465654780586    9.12964557094494
C         6.02043227713177    3.70073892058855    6.99706838649228
H         6.83648785391247    2.99190284454497    7.01324645938338
C         5.50159338362059    4.12311191704283    5.78698723417881
H         5.90220505354479    3.74739724421394    4.85776880023582
C         4.58909342048496    7.76335663614782    5.02069382918049
C         3.75795024796786    8.60913859764585    5.74546808830203
H         2.68573285754493    8.52607705376163    5.63579593250320
C         4.29607168885417    9.53699324857335    6.61884760831485
H         3.64174371543049   10.18771617128664    7.18115533790615
C         5.66803122127078    9.62933990378954    6.77782230742232
H         6.08657865143730   10.35297969257750    7.46184498769496
C         6.50100473127669    8.78832812444771    6.06017955065988
H         7.57227350271944    8.85368840593689    6.18370766808099
C         5.96487044584618    7.86181342429431    5.18467650409656
H         6.61240748624899    7.20215289574896    4.62543500080874
C         3.74978063883440    7.28011720589831    2.72535323841675
C         4.29698483328718    6.62260398153933    1.62646593338145
H         4.87635221822362    5.72450326198646    1.78619123842168
C         4.12318269079732    7.12429337585798    0.34940694148891
H         4.55926544650430    6.60893154613155   -0.49468890019658
C         3.39970387907844    8.28765034205835    0.15042505371370
H         3.26114187528444    8.67661266003491   -0.84776415273740
C         2.86784649318507    8.95733153775486    1.23947267630216
H         2.31175509607313    9.87178192853883    1.09255137814837
C         3.05226265037012    8.46703320821374    2.51793746996531
H         2.63947854766572    9.00126798057258    3.35916495829406

