49
CSD_code = LURZUV | q = 0 | S = 0 | Stoichiometry = C20H21ClN4O2Pd | MND = 4
C         7.21367980691093    9.02088062003321    3.26439005810819
H         7.95156819659217    8.64444527568525    2.56300306779684
C         7.52395120618802   10.00001330314731    4.19118155164337
H         8.51742102345770   10.41746733722821    4.22481325335008
C         6.53580982513135   10.42688284329738    5.06655799926480
H         6.74115063415575   11.19088706697245    5.80142586391643
C         5.27802092840875    9.85685727846341    4.97953131065491
H         4.48201101522002   10.16205683692255    5.64116671767672
C         5.03634680841331    8.87734050736484    4.02239395204261
C         3.69301090224020    8.21429693623828    3.89270408206939
H         3.58026087149380    7.48571521274412    4.71392930890199
H         2.88073223049254    8.94758369921259    4.00454213016691
C         2.37335923882048    7.35707022703102    2.12034860272560
C         2.36997438216767    6.78665548263864    0.66558974770324
H         1.33650799734306    6.56744635142801    0.39763701550362
H         2.75360928102161    7.58410685257742    0.01605346227571
C         4.54435535813410    5.59477839000198    0.79940400247602
C         4.95176703227843    4.33456772227020    0.45329156847013
H         5.93105923362035    3.90061606425128    0.50420280391302
C         3.90949592844253    2.27208840487430   -0.50352664071538
H         4.95410924214589    1.94713613633624   -0.47254621034063
H         3.57235637392477    2.22301677575199   -1.54467502712228
C         3.06977189405197    1.35883654092967    0.36111997156375
C         2.35611271915073    0.32322615934569   -0.23075296603207
H         2.41279320240098    0.19470390814623   -1.30113384970092
C         1.59028787778495   -0.53432817824218    0.55074783470925
C         0.88722854237271   -1.84947675871971   -1.30621203088889
H         0.47889479523461   -1.01784763597208   -1.88986494812836
H         0.25674581462876   -2.72612757627638   -1.44379992838158
H         1.90071900165218   -2.07609488225798   -1.65234604895490
C         1.53767315421355   -0.33345280163466    1.93199511591940
H         0.93378030117953   -1.00276626352201    2.52288230314344
C         2.24720999347890    0.69588071423226    2.51125607460810
H         2.20342673048446    0.84130994322676    3.57941295698724
C         3.01961304617562    1.54439250751397    1.73333389400792
H         3.57785249957238    2.34474456707089    2.19467855901594
C         2.80592177057063    4.44195513184438   -0.00545131254445
C         1.43236315561377    4.08576815268252   -0.43633578748108
H         1.15218781699640    4.63855255442335   -1.33393207957459
H         0.71846437603264    4.32914807070063    0.34950913063664
H         1.36344459088287    3.02162874221137   -0.64041357556080
Cl        7.42484643594118    6.50871147970996    1.13548914227860
N         3.87839750765517    3.64022729428722   -0.04920822680658
N         3.19365758984586    5.61883456488442    0.49567457214050
N         6.00099875361542    8.47495798469941    3.18266260559872
N         3.57910776875997    7.55472752173868    2.60776023415895
O         1.30029275673569    7.62770863640818    2.65171143479519
O         0.86110117378755   -1.57557432823677    0.07394277080016
Pd        5.37644921457867    7.03314462634086    1.87015553320276

