49
CSD_code = LUSDUA | q = 0 | S = 0 | Stoichiometry = C18H22Cl2F4N2Pd | MND = 4
C         3.16970637371955    4.39677439706157    7.73244258957731
H         4.01021701106107    4.75942843633606    8.32332787043051
H         3.53829641049210    4.11666548050803    6.73825746407519
H         2.74990479682914    3.51591333234389    8.21567210641017
C         2.80351166290048    6.58826365194094    6.94950097112030
H         2.10741062537093    7.41293089207853    6.81514305559726
H         3.18286046558649    6.28166730632842    5.96738370588196
H         3.63667212551066    6.94688095651001    7.55417440897976
C         1.03993963066696    4.96085489072725    6.78133464632017
H         1.39294200331576    4.81087107107593    5.75131609360489
H         0.70949434985244    4.00240035776536    7.19529711903563
C        -0.11324465892335    5.93231923048303    6.79816486503063
C        -0.26084563438599    6.91610574334543    5.82606035111668
C        -1.27275224674419    7.86020797505585    5.86356876454130
H        -1.32922696006438    8.60755592968365    5.08880077360950
C        -2.18702557874991    7.82889710018218    6.89868724509931
H        -2.98405504454018    8.55114665483597    6.96604955365873
C        -2.07066622980178    6.83333038910206    7.85277475297070
C        -1.05648991663946    5.88984367235964    7.82758977050358
H        -1.05020405294752    5.07984721420676    8.55831382785247
Cl        1.50358017106334    8.18053201877643    9.17382589376309
F         0.60404513710937    6.94813724368117    4.78913756214051
F        -2.99030421147056    6.76467931554154    8.83886518041131
N         2.15804379337881    5.45378535895021    7.61839604782705
Pd        1.25245952352174    5.90686349173624    9.51937017691854
C        -0.66820427278179    7.41652814815581   11.30506250948662
H        -1.50864288881107    7.05398527350852   10.71404615104596
H        -1.03690490418563    7.69649480613905   12.29926343236863
H        -0.24840193476326    8.29747449686003   10.82201092668348
C        -0.30239992126044    5.22505191185609   12.08782743575626
H         0.39332776234869    4.40006681753771   12.22209823447862
H        -0.68190720629968    5.53145769246710   13.06995155195376
H        -1.13555734583314    4.86692924571920   11.48284298076377
C         1.46146270464205    6.85253676663096   12.25623534020528
H         1.10894931377425    7.00250308992928   13.28643300992369
H         1.79172884487617    7.81099980869981   11.84207427037249
C         2.61447029277143    5.88093429614927   12.23853678549373
C         2.76225773463224    4.89686695948434   13.21027900798104
C         3.77416463485098    3.95278998308545   13.17221771955328
H         3.83074836291234    3.20515730347453   13.94668782803122
C         4.68847919429596    3.98478964441155   12.13716739546388
H         5.48577228408278    3.26285119477663   12.06961987560389
C         4.57182725786841    4.98055961292473   11.18334996613925
C         3.55714440520518    5.92352934915823   11.20857674190411
H         3.55005545436804    6.73338197157516   10.47763258900599
Cl        0.99847545883524    3.63318480614806    9.86379599425077
F         1.89761668306111    4.86466318159261   14.24737147786966
F         5.49180942069981    5.05012567212142   10.19768709954036
N         0.34345911859607    6.35953585697222   11.41927687965152

