85
CSD_code = LUSFOU | q = 0 | S = 0 | Stoichiometry = C44H37BrNPPt | MND = 6
Pt       10.20905462274835    8.68681500444827    4.62981738893867
Br       11.12753791643172   10.41687383047500    2.97778396922961
P         9.33673892227789    7.55869467147406    2.57790072618993
N         8.27442953969440    9.81481668683867    4.79239692410404
C         9.21711318258330    7.47770781275274    5.92962482070321
C         9.60426613831651    6.28214573401900    6.51430973756202
C         8.74703264337256    5.59191749985764    7.35796899503351
C         7.48559398230458    6.08976792535446    7.64857996853642
C         7.08188725083989    7.28410660421149    7.09080710777414
C         7.93672724219607    7.97898876503440    6.23051096518906
C         7.51287550395952    9.21467573947346    5.61887174550228
C         7.88069090371604   11.05427230558261    4.16507315238004
C         6.74702873401567   11.77850530583195    4.83576966235444
C         6.94161682369238   12.37409330853185    6.07751909437536
C         5.90258432479241   13.03626935629675    6.70509086489852
C         4.65944651213890   13.11124447900458    6.09817935360083
C         4.45834679177374   12.51830151747343    4.86366636719410
C         5.49669455998865   11.85083934312058    4.23682694575706
C        11.94883144441996    7.62200396534333    4.57039953949756
C        13.17655853018281    8.24044247607251    4.78337464327351
C        14.35797000402613    7.52691673434974    4.65210438033829
C        14.33441227070025    6.18799461135908    4.30507022936044
C        13.11927807476282    5.56580889661583    4.08289559720175
C        11.93701183879850    6.27768228349984    4.21318539126137
C        10.87522772745285    9.63678989109048    6.32389236214745
C        10.75146683131465   11.01813588762056    6.39146917432091
C        11.14114754346450   11.71525307809555    7.52523261333799
C        11.66638962208653   11.04153759774222    8.61134292923940
C        11.81090069447318    9.66716991852465    8.54834194613323
C        11.41909720535604    8.97009136058557    7.41682392802346
C         7.90262793740992    8.42930346263401    1.85111411840378
C         8.17427110388626    9.55539482404867    1.07172510866447
C         7.14021525838531   10.29858590639993    0.53295177674870
C         5.82385123020647    9.93644477881649    0.77239292950670
C         5.54902802570709    8.82428152845575    1.55048944338838
C         6.57991005491528    8.07355525363378    2.08934802479314
C         8.73378338626746    5.83838917547463    2.76352064542170
C         9.26052544618993    4.78493858431283    2.02163239979025
C         8.83135355251150    3.48906888991905    2.24542078870528
C         7.88123899509372    3.22257523916916    3.21671982310614
C         7.36950055034570    4.26090378624532    3.97648114136745
C         7.79904458012724    5.55619701402169    3.75784965185923
C        10.36910808070685    7.41604690587184    1.07725735633638
C         9.75240534104271    7.11659705772724   -0.13784596096227
C        10.50716330815973    6.99621244164661   -1.28770804378929
C        11.88181490141882    7.17245652653494   -1.23956220918178
C        12.49778391696523    7.46329754237155   -0.03568624887508
C        11.74651851082602    7.58345893878149    1.12122124973100
H         9.06998741635321    4.65820188040869    7.79525696020654
H         6.82605488737872    5.54799069628506    8.31016821453041
H         7.62244452142737   10.82875156943801    3.12415593976620
H         8.76667290338019   11.69848524462812    4.12839936319284
H         7.91126969973844   12.31186663596319    6.55191408421179
H         3.84915225819974   13.63134765123605    6.58726912672367
H         3.49039444665619   12.57405179995952    4.38731381371104
H         5.33959400395344   11.38459787718674    3.27359189124989
H        13.23187884246325    9.28999296671664    5.04141878598341
H        15.25602535362720    5.63431779402165    4.20183366925961
H        13.08262955984992    4.52294003247826    3.80074568379721
H        11.00265026524136    5.76199178416627    4.01918925888509
H        10.37935969442601   11.59035738150822    5.55285732044644
H        11.96988325037457   11.58299579369126    9.49547283064683
H        11.55587788652361    7.89790956959577    7.40059075562521
H         9.19814615700909    9.85435521366440    0.89506830407544
H         7.36501499694743   11.16670722471063   -0.06848964181238
H        10.01471212161667    4.97321996733945    1.27153338884483
H         9.24719977085834    2.68231119753355    1.65958409038592
H         7.55007551219969    2.20938625952051    3.38907398524087
H         8.68005028679120    6.97665681600525   -0.17827977699598
H        10.02182496012430    6.76660741561531   -2.22529642422654
H        12.46817500294853    7.08424754620945   -2.14221819663815
H        10.58388449837699    5.86818526490440    6.32184357481559
H         6.10362810803749    7.69113401703201    7.30739788440312
H         6.52830300048146    9.60689267285271    5.88109596699995
H         6.06317572677831   13.49706493857921    7.66860772093331
H        15.30010914339568    8.02847358741572    4.81820594527607
H        11.03759689479076   12.79102408752269    7.54839003056229
H        12.23175739680210    9.12696400762804    9.38441044614188
H         5.01564931324856   10.51802466805455    0.35340405216612
H         4.52517835916990    8.53449853004395    1.73963975727072
H         6.34425395943736    7.20072666448180    2.67973046192330
H         6.64165581981492    4.06357808220888    4.75005895939822
H         7.41583871503577    6.35129251030131    4.38104197388466
H        13.56704838610658    7.60456801781895    0.00881449237008
H        12.23844531841635    7.82031218682508    2.05215278826357

