58
CSD_code = LUSGUD | q = 0 | S = 0 | Stoichiometry = C30H21N3O3Pt | MND = 4
Pt        8.61625804559785    1.66194314273584   13.37879227714832
O        12.32433215003402    1.49127120870600   17.44494580917899
N        11.74134220305460    3.14703011309818   11.26483641793778
C         6.02872719045208   -0.11998912169171   16.30809225796830
C         4.54987944432826    1.15733348759732   11.78482667485575
N         9.66409657979996    2.79174129454448   10.64334680994853
C         9.73920929645160    2.41311762871099   11.94151230733534
O         6.80503550638020    1.53905523176387   12.27444709509795
C        10.90199711017894    3.22836948847401   10.27911876435077
H        11.15058290848958    3.59302341626286    9.30378859356415
O         7.64520396907824    0.87245441061377   14.95562820543541
C        12.94497138603069    2.25910356131801   15.37850712473132
C         5.70081475347388    1.11966986984978   12.73056563509483
C        14.08828712510166    2.32962321848954   16.24661583081665
C        10.62066225082439    1.52530189396565   15.68586579491034
H         9.85080154351943    1.13134328926003   16.33031120594129
C        10.36090294442917    1.83798934788593   14.36064857831056
C        13.63677516856048    1.84621572028048   17.49176392633087
C        16.24140578877910    2.66292929303611   17.20002034111617
H        17.27048482281358    2.97816176300164   17.11158180472037
C         4.77181052324085    0.88280923410593   10.43820780200546
H         5.76908170886089    0.62271341731274   10.11416103222327
C         4.43721405630063   -0.55152592137202   18.05880621173306
H         3.45104250575595   -0.41407257689172   18.47819404398676
C         2.45343607429510    1.25454235123005    9.95917630042087
H         1.63763577551360    1.29033204297874    9.25224674528589
C         2.22738717903551    1.54604947057468   11.29441373600409
H         1.23577435268209    1.81628741685495   11.62723851958178
C        15.78168564343796    2.18386166714268   18.42395590041702
H        16.46119221503812    2.13644495092877   19.26166753389749
C         6.64392629924397   -1.47728171991778   18.20107705095264
H         7.37998112696944   -2.06872536973536   18.72558948823712
C         4.75892004499594    0.04415740463440   16.85297002544544
H         4.02775594644548    0.65879539660762   16.34919166670941
C        12.70553458025166    2.58115906027619   14.04779723818765
H        13.47163325318165    2.98438371216085   13.40524292530241
C         3.72867583961352    0.92298687163811    9.53262347227790
H         3.90971153279734    0.69735750709457    8.49172081531008
C        11.90231856783530    1.73946652896901   16.17354347169101
C         6.97169590591964   -0.87559737055432   17.00135070927783
H         7.95952643781547   -0.99012133078430   16.57982267747769
N        11.02291245383701    2.64786309413916   12.27447526670571
C        15.40648007342632    2.74164155967008   16.10250970730219
H        15.76338733005926    3.11356591891637   15.15442088023680
C        14.47264608078761    1.76735903517676   18.59093746406589
H        14.11058818408039    1.39592383912337   19.53617540338502
C         8.49230662726931    2.73857109975266    9.81465674547312
H         8.64227053692474    2.03708548071483    8.99226207712800
H         8.27407733964860    3.72549265863835    9.40504433324833
H         7.65845929284396    2.40633547524814   10.43212328519056
C        11.42533887712595    2.36162332587615   13.58550985573766
C         5.37420043944575   -1.31860846740972   18.73142226647817
H         5.11625457707143   -1.78603804548139   19.67041071449884
C         6.43531026424767    0.50595846664622   15.01892707444069
C         3.26717275312576    1.49608265965960   12.20450416627780
H         3.08723819434846    1.74442033298137   13.23994679503586
C         5.46991174737909    0.60670425664265   14.00944065054739
H         4.48863547178226    0.21160830853579   14.21512049302162

