98
CSD_code = LUSGAJ | q = 0 | S = 0 | Stoichiometry = C41H52ClIrN2O | MND = 8
Ir       11.92933906712551    3.57202364944925   22.08198271512316
Cl       12.88141693318371    1.92958465463738   20.69455463307402
O        11.78203969265201    2.12783799013152   23.59954366316346
N         9.63390612544315    2.68744960168460   20.29238855758151
N         9.27535336145516    2.25184758646134   22.40536234643463
C        10.13956736761913    2.82703288080971   21.53802227862552
C        11.80742803001139    5.43632499555332   23.25771743224433
C        11.60512602259231    5.79456246541100   21.88615720619229
C        12.77453954011761    5.41277350192740   21.16775362505805
C         8.46218178650265    1.96368676416343   20.34509125771277
C        10.72384119927392    2.16531900085690   24.34908868726854
C         8.23998620516532    1.67216058587746   21.70270293075519
C        13.17002801067803    4.98171271191645   23.40388453971070
C         7.57085165205692    1.49540726546597   19.38707193045848
H         7.71192423048555    1.69887366444823   18.34084706368153
C        13.75138213239760    4.93466668052709   22.13097206617025
C         9.41582138836059    2.25580566171631   23.81012493480642
C        10.42745342982749    6.55759693888662   21.36429746258217
H        10.40683982868982    6.56343596115856   20.27749965638521
H        10.48810550201222    7.59237509905071   21.70615138836385
H         9.48927712467188    6.14102192336508   21.72760251555499
C         6.49122942542109    0.72935157513921   19.78921624401111
C        10.30125622994517    3.26682119820595   19.13383615409916
H        11.32728817750339    2.88933945650679   19.12737443218115
H        10.36660869158442    4.34504884598497   19.29628096894742
C         7.17894568961682    0.87364412000255   22.10401411489040
H         7.05594868670257    0.59709751440226   23.13871543285957
C         6.30044695234020    0.40309059398909   21.14532069246942
C        15.15928314179111    4.58922884321626   21.76993169173719
H        15.69762187903072    4.18968780953636   22.62542406598518
H        15.68228668829849    5.47620832516296   21.40741968556653
H        15.17541324604813    3.83978676981148   20.97940791404035
C         8.64963429794181    3.85903059310056   17.32881076896998
C        10.89679583532635    5.76788567175797   24.39596193407668
H         9.86298064610809    5.83159543094345   24.06365362659314
H        11.17546768663787    6.72959476873839   24.83250810472130
H        10.95832060997814    5.00948749028669   25.17467163726049
C         8.12634473263517    3.65277667682401   16.06152971758132
H         7.38353434973402    4.33620133732537   15.68140101730909
C        10.82772192145619    2.09928843309320   25.75191476451543
H        11.81194220255028    1.97634908720602   26.17851001567421
C        13.79477022736391    4.63533257769290   24.71456400643676
H        13.39486715454905    3.69140496785995   25.08662631331076
H        13.57798648843502    5.40911816133879   25.45085923425013
H        14.87299047906207    4.53280745385847   24.61936740539303
C         9.63576112039152    2.98894685378860   17.81457127763218
C        13.11165953814571    5.71250461076239   19.74123253213885
H        13.56864470759719    4.84541164095740   19.26782113642902
H        13.82527993986310    6.53733005190261   19.69692178819794
H        12.23027705825678    5.99242623703912   19.16966433999649
C        10.98500500324680    0.82719601654263   17.55616909860958
H        11.34419910738712    1.07286153563986   18.55533326762737
C         5.15143246075671   -0.46615279002722   21.55545317417016
H         4.20300622879895   -0.00769178841895   21.27754631348936
H         5.15655707309403   -0.62728625322217   22.62998928757056
H         5.20792680941570   -1.43457541988127   21.06019872402996
C         5.53385212686712    0.22347021394955   18.75318090569074
H         5.82274988926853    0.57180653038465   17.76497175063538
H         4.52180587142790    0.56844847287443   18.96166268066876
H         5.51663734743127   -0.86560577359844   18.74521591280421
C         8.31128069695955    2.40024278103892   24.63292050782374
H         7.33708626294193    2.55800619894196   24.19449318860735
C         8.45395168668109    2.36231570598413   26.00824539157105
H         7.58922099406512    2.47096069907121   26.64431060724718
C         9.71470002383556    2.18272607684646   26.55825637160261
H         9.83035159546120    2.13280558008920   27.63136044068834
C         7.94568360982248    2.36548044089024   13.89915166482886
H         8.45021756604321    1.50307844666207   13.44935380997399
C         6.57775835702361    4.95500508703633   18.24365638598425
H         6.11062146737118    5.11795024853386   17.27651970381129
H         6.22143105853268    5.72688006605444   18.92299342033140
H         6.25865771674467    3.98687389204165   18.62418635004321
C         8.10526375431915    5.00907036782508   18.15178051282169
H         8.47366244427811    4.93548338719167   19.17699619083655
C         8.57042917795192    6.34517044360385   17.56705578851951
H         9.65720895193688    6.38164581898689   17.51634558090824
H         8.22143541033043    7.17257697370454   18.18192131115965
H         8.18365746567206    6.47891640013051   16.55995837533895
C         9.45869504433608    1.70337890333879   15.79484425573799
H         9.75479892254283    0.85279541924223   15.19929784485701
C        12.21172400339495    0.73508841252325   16.64630716310226
H        12.93165353980961    0.04222641284432   17.07330534745328
H        12.68701363479668    1.70921089882848   16.55921283369526
H        11.94680261732118    0.38898634280203   15.64986566012905
C        10.27754694002713   -0.52733117322565   17.66225828374121
H         9.93918923667598   -0.87967636394499   16.69045680543071
H         9.41507317224231   -0.45227969714192   18.32184419469498
H        10.96162744641938   -1.26401275932966   18.07562402092681
C         8.52911777951377    2.58627172953939   15.27320075716650
C        10.01964033059892    1.87793373995026   17.05406233978185
C         6.45235527343283    2.04415080647110   13.99758804479187
H         6.29445953040469    1.16674985271682   14.62148010163323
H         6.04279091380700    1.84387992471190   13.00991191637007
H         5.90620275732395    2.87732583298332   14.43345764677327
C         8.18291683935111    3.57722273122211   12.99658062831062
H         7.65443109673443    4.45059699751258   13.37041568580267
H         7.82953125680008    3.37055431452261   11.98866555961211
H         9.24412307217171    3.81167163562580   12.95074628438451

