76
CSD_code = LUSJUF | q = 0 | S = 0 | Stoichiometry = C39H32CuIOP2 | MND = 3
Cu       -0.49355272749715   -0.59217997664961    8.31453864902686
I        -0.97781364536658   -3.02990931987363    8.39926487965169
P        -0.79508089882002    0.65686214941633    6.46129154471886
P        -0.66582477009025    0.67647470788425   10.17458778579306
O        -2.72621966241581    0.93570392979662    8.41018351223585
C        -3.37939111302853    0.55665313535150    7.27017819904375
C        -2.56832791720131    0.42981765275525    6.13968581186431
C        -3.13905587731035    0.01713148437174    4.94493463934806
H        -2.52492289079335   -0.10437254094447    4.06519136809481
C        -4.49428231043411   -0.25467884277316    4.90310439851675
H        -4.94493397158526   -0.57883835443723    3.97743052983966
C        -5.28162391450564   -0.12829799283372    6.03587576802635
H        -6.33175243702127   -0.35893058855729    5.96345417844767
C        -4.74130868953287    0.28243474343520    7.24789061821716
C        -5.54649159799404    0.51282716666729    8.51603589854589
C        -4.64403418875831    0.24131725721168    9.70789621565619
C        -5.08298310236884   -0.20933732928332   10.94684237872570
H        -6.12242429473361   -0.45138989301630   11.09594052448289
C        -4.20700734866009   -0.35943606326522   12.00965529746510
H        -4.58062372255145   -0.71421038733069   12.95810224214920
C        -2.86198349816349   -0.06700971738937   11.87162856678445
H        -2.17965248850075   -0.19793634511499   12.69824568891339
C        -2.39251366926057    0.38145801434979   10.64671809382164
C        -3.29038731070116    0.52482567419152    9.58629165842575
C        -6.81634889571730   -0.33706041759067    8.55241197233612
H        -7.45791266801882   -0.09942004528434    7.70850130443681
H        -7.38582885094957   -0.13057879207837    9.45426083305557
H        -6.56838494223345   -1.39551080543378    8.52346517390012
C        -5.93082140948329    2.00664234252890    8.55733287361885
H        -5.04210231261097    2.63583487432957    8.53502123552592
H        -6.48369463894535    2.22559180945792    9.46863208031570
H        -6.55160814108989    2.25726677335321    7.69946648343561
C        -0.58363097881722    2.46524010381696    6.43108895824312
C        -1.62712925665172    3.37020588063509    6.57712609852398
H        -2.64544996423558    3.01711876127783    6.65790616721852
C        -1.36334709936744    4.72803649166516    6.60163692530892
H        -2.17834444406971    5.42899263714224    6.71084657892782
C        -0.06461119862522    5.19077340366567    6.47958857599539
H         0.13389081094734    6.25220638940087    6.49066259998549
C         0.98146297472308    4.29109342040989    6.34608731441339
H         1.99642143471435    4.64948320569220    6.25328400084891
C         0.72543629054095    2.93498780413581    6.33538118141655
H         1.53680306519338    2.22372459139383    6.23841238234312
C        -0.07757068804582    0.15395082468922    4.86527334440182
C         0.04930692109648    1.00533050813487    3.77198831226490
H        -0.27085307711258    2.03555616487870    3.84785580775059
C         0.58219922947319    0.52656577652210    2.58944728189984
H         0.67849630442009    1.18745389368643    1.73997019692938
C         0.98758170089944   -0.79542300886454    2.48905877014470
H         1.40230723084979   -1.16138456165603    1.56139583573357
C         0.86151136820862   -1.64575221021601    3.57516424030995
H         1.17554649787164   -2.67591979270892    3.49980083353228
C         0.33393255432110   -1.17190167913092    4.76226812149934
H         0.23359947638557   -1.82951169963292    5.61563941332799
C         0.20704142827874    0.28009328102177   11.72088669172177
C         0.66051756309185    1.22591208895102   12.63279543303005
H         0.49467667285501    2.27890257441859   12.45138338563499
C         1.32081190691968    0.81211047321921   13.77603976699898
H         1.67067496630095    1.54737475428655   14.48642050220561
C         1.53233722437767   -0.53646562103334   14.01355510608669
H         2.04842149898553   -0.85059296252282   14.90880841268354
C         1.08650150897221   -1.48143490993985   13.10282364090029
H         1.25346387392240   -2.53280274947198   13.28300271408906
C         0.43211875931219   -1.07532153368036   11.95573640065002
H         0.08681974889741   -1.80609343559749   11.23586909564825
C        -0.56751874691342    2.49305786502702   10.09681809184086
C         0.66769218449383    3.02453990729630    9.73225971478094
H         1.49572404178325    2.35246613754389    9.54050460874988
C         0.83594514180179    4.39080294198179    9.62893858292899
H         1.79941036492824    4.79814226647631    9.35994906412569
C        -0.23594226474473    5.23688465529356    9.86453576001876
H        -0.10862518554559    6.30583214608592    9.77899446949787
C        -1.47054397823517    4.71234812217047   10.20708156186527
H        -2.30619390584436    5.37301218778090   10.38882667499540
C        -1.64049048603169    3.34464624006063   10.32713041525631
H        -2.60330756398637    2.94101436244764   10.60909656085418

