48
CSD_code = LUSKEQ | q = -1 | S = 0 | Stoichiometry = C22H15O9PRe(1-) | MND = 6
C         3.74430852982694   11.60847901634362    6.83012647542353
C         4.63031723353767   10.40654705695138    7.30320644541955
C         5.49203004889332    8.20646064997173    3.33660780246394
C         3.96497283248770    8.51224895163290    3.72133581127188
C         5.34381578025313   12.92271619027148    1.49863850777765
C         4.87786227034447   13.24472849695994    0.22637417473988
H         3.94778907494307   12.81998582753696   -0.12666222775592
C         5.60586016885341   14.10246034932584   -0.57721073028900
H         5.24465702213276   14.35258895939618   -1.56460748886945
C         6.79916871084464   14.63844186397640   -0.11769995534370
H         7.36611821265934   15.30672848982934   -0.75001719106106
C         7.26681216109471   14.31293155498371    1.14512267494081
H         8.20025437105349   14.72531353651562    1.49794949792854
C         6.54252384821795   13.45460683635302    1.95556744455752
H         6.89461951192645   13.16958061964790    2.93928823402094
C         2.85707690324067   12.68685570785005    2.94573780037574
C         2.69784020052438   14.03428597967585    2.63985215278176
H         3.47675274248210   14.56387219613126    2.11031426460302
C         1.54763651696795   14.69951997422454    3.02707816679825
H         1.43040181371947   15.74757099462234    2.78980421389492
C         0.55948699747072   14.03342951889148    3.73186082429685
H        -0.32972796890354   14.56140377413895    4.04519798159804
C         0.72058206602301   12.69505690173746    4.05287529621955
H        -0.03753146309601   12.17939738084544    4.62315250357303
C         1.86373610201989   12.02278307463168    3.66513462072184
H         2.00440419372296   10.98767829098779    3.94154643485307
C         3.94254174522169   10.48037871083209    1.37686557947512
C         2.63873879807438   10.10058105665464    1.08571961122702
H         1.80657856786816   10.64103591559893    1.51420865561306
C         2.41081960745304    9.01573599616377    0.25669876853519
H         1.39662680725466    8.70960692921121    0.04550387282842
C         3.47440664760050    8.30984048626181   -0.27803883589298
H         3.28899261123028    7.44778916991203   -0.90149608899389
C         4.77654611285081    8.69735545455140   -0.00308496319941
H         5.60653937845904    8.13927726358058   -0.40814032034130
C         5.01269727513696    9.78019383877441    0.82080230586937
H         6.02242233723051   10.08048076997186    1.06958469664294
O         6.85604292520220   11.74156547194686    4.48589374353413
O         4.03346710348221   12.03436717273246    5.63931224433774
O         5.38218624496975    9.92584723764690    6.38273903172024
O         2.87539195514211   12.09194299596336    7.52421002382329
O         4.57502063225321   10.01392711143693    8.45134477847410
O         3.85533351806535    9.68291217391250    4.21515375626675
O         6.25413830488524    9.19202173675361    3.55357630612249
O         5.75373663164419    7.13532143015933    2.83340516698419
O         3.08690734920234    7.71824457934547    3.48144421577549
P         4.38410240530703   11.79177453782608    2.55262376795747
Re        5.39229516022047   10.93202776740090    4.57499994828356

