97
CSD_code = LUSKOA | q = -1 | S = 0 | Stoichiometry = C40H50N2O4Re(1-) | MND = 6
C         9.88925768284938    6.00294276469327    4.12848512939261
C        10.19553625000036    6.65040972445431    2.91808011232243
C         9.15763284189011    7.24542230590713    2.21573385342104
H         9.38907971138488    7.74099672812245    1.28984162865362
C         7.83879155564291    7.24091338166414    2.66238692106462
C         7.54268805087819    6.59107405606432    3.85283994002715
H         6.53665069192652    6.58727728438821    4.24545098834306
C         8.53934210508558    5.94480865363285    4.57326971414523
C         7.10777978673408    4.88912825430288    6.15505306478175
C         6.72953744159565    5.07240319997638    7.48783423693529
H         7.45418942053344    5.49471194801666    8.16858570864239
C         5.47139391643776    4.69658539122934    7.91258598551544
H         5.18832574737631    4.84393155145706    8.94565680639370
C         4.56875909086208    4.13087003999972    7.02481230951022
H         3.58333403845884    3.83825360545446    7.36075882565821
C         4.94429630716692    3.92510197443958    5.70751833227898
H         4.25526619703876    3.45888805542094    5.01551936359059
C         6.20013471359568    4.29945069902360    5.27086866045928
H         6.50319882245321    4.10864003230486    4.25149377198702
C        11.64493545940703    6.68108563170190    2.45248915592906
C        11.83274777044472    7.43012161642209    1.12887144645134
H        11.52273420868446    8.46930234233495    1.21907122531725
H        11.26799080928199    6.95847507740744    0.32707077136729
H        12.88661851463161    7.41493952393609    0.85316986799014
C        12.49317320952790    7.37708224748771    3.52607424889780
H        12.15648607894951    8.40337676300860    3.66583554514498
H        13.54287907655562    7.39004074052169    3.23363788686194
H        12.40074699949817    6.85241884763756    4.47274810605459
C        12.13990117742004    5.24036532416792    2.26437233999043
H        13.19293096135847    5.23125320400733    1.98372792449688
H        11.56759208039580    4.74282143516354    1.48306272524419
H        12.02275604158417    4.67775796756931    3.18576640446453
C         6.70548696895956    7.91268804556970    1.89618235293769
C         7.17162834453693    8.57601151477386    0.59649295734590
H         7.90455067982311    9.35394949665711    0.79726022182279
H         6.32006871974750    9.03550792494001    0.09537595778750
H         7.60653394917750    7.84410597886040   -0.08008857831909
C         6.07001964734733    8.99669634969154    2.77818536444875
H         6.81496928609127    9.74293088360574    3.04658913150904
H         5.67238063158842    8.57122677043282    3.69500798727272
H         5.25691154174514    9.49153352292882    2.24775789686402
C         5.64974172684671    6.85725256070349    1.53586011159129
H         4.83635123047081    7.30852261702551    0.96824926245031
H         5.23243005872781    6.40169001661771    2.42929929056618
H         6.10018747935940    6.07160129639689    0.93263909693285
C        10.78178865737674    2.26139805015119    4.63540791835480
C        10.79669231262538    1.38003382222100    3.53944941292005
C        11.97010524102163    0.68942445020306    3.27355321564831
H        11.98415026059993    0.01494947698389    2.43610453187555
C        13.11959891276061    0.82033214940258    4.04837958109315
C        13.10031235011302    1.69967646953846    5.12240920662844
H        13.96305984820698    1.80965746425148    5.76259476650680
C        11.96326894580269    2.44585399010467    5.40594443817842
C        12.94215105847229    3.83536324232420    7.07268363641135
C        14.07022520535831    4.26281594372927    6.36690742678647
H        14.05934330317641    4.23681814579334    5.28682579686471
C        15.17038733888450    4.75429359318209    7.04217912488318
H        16.03290587132592    5.09258904859912    6.48308478678698
C        15.16995540662389    4.82821642138948    8.42536087885308
H        16.03496697258779    5.21162517049873    8.94910878025714
C        14.04632256986807    4.42535097331950    9.13106140757199
H        14.03518702203651    4.49695085847423   10.20986455768072
C        12.94083234215961    3.93436004755482    8.46669894019232
H        12.04828500327663    3.63567286988956    8.99682939992631
C         9.52624954271797    1.21651274931201    2.71620009258507
C         9.13682842933515    2.57759675052324    2.12299965297883
H         9.91080424756072    2.92888154975575    1.44252916596573
H         9.01587773578597    3.31281803943169    2.91294984170350
H         8.19879439766305    2.50121171908587    1.57347915897651
C         8.40253443687324    0.71953383023492    3.63637395778346
H         7.47070526984830    0.61890857437243    3.08033927955454
H         8.24926449120200    1.42180911778774    4.45082144620086
H         8.66304744703394   -0.24930435467945    4.06025353410977
C         9.68355838027829    0.21806811053726    1.56440327982156
H         8.74442174789826    0.14983580825542    1.01642251957062
H         9.92965820483817   -0.77440614292182    1.93670095853397
H        10.45664873007940    0.53923991829877    0.86909265841550
C        14.39969144240141    0.04370366486877    3.76382749624917
C        14.28633871877427   -0.87056179732678    2.54001037918525
H        13.50690037982929   -1.61570601959541    2.68104122245556
H        15.22982714652522   -1.39373774039493    2.38659735854894
H        14.06980331949207   -0.29522168133955    1.64295372181787
C        14.74116595670757   -0.83166605237736    4.97792135186570
H        14.88524053202089   -0.22608172317082    5.86798970332282
H        15.65420888244703   -1.39770943116248    4.79536433346451
H        13.93112419666673   -1.53161270667655    5.17225533902829
C        15.54255440235189    1.03683691585933    3.50697734559405
H        15.29544745392877    1.67800350263604    2.66325959328492
H        16.46674151198248    0.50552815973740    3.28110093291847
H        15.71380474568079    1.66825854405044    4.37406692360005
N         8.38574077848868    5.25871574123297    5.75222819241052
N        11.81120281156940    3.35544351144507    6.42268649406847
O        10.75948388707040    5.42122424689502    4.89539675173262
O         9.75198966819810    2.95639360696914    5.00999435647064
O        10.75164548446683    5.47394831008981    7.61353796602973
O         9.02440304077582    3.45002648508399    7.58253814840004
Re       10.03630693321010    4.35175925548087    6.53125498137390

