104
CSD_code = LUSMET | q = 0 | S = 0 | Stoichiometry = C34H58N7Si4Y | MND = 5
C         5.23909362946274    5.63451905717291    8.47450100635824
C         4.61004060926088    7.76836727472679    8.72970421323129
H         4.48551639069007    8.70856261848406    9.22704168558865
C         4.26181664657023    7.38630374472238    7.47840103220596
H         3.81067371075139    7.95117772693763    6.69014461633649
C         5.71347277205905    6.67121300117898   10.66283894327639
H         5.28025744751014    5.83224744213900   11.21010813900500
H         5.45232215609860    7.60572912552786   11.15901090240533
H         6.80127177823954    6.56121415410294   10.65144531959897
C         4.41230209725039    5.35253982101208    6.14267475497737
C         3.26917538821395    5.67926427144593    5.41744913691465
H         2.55395881712376    6.36263732835841    5.85340940377766
C         3.00718186060853    5.15100156465427    4.16789527706391
C         3.94598533186849    4.27254479080243    3.62875420154559
H         3.78354645066033    3.86067843255435    2.64278909556390
C         5.05340527086020    3.89922077268014    4.34603423379100
H         5.74745206257993    3.18315716378699    3.92897360594076
C         5.31623762157713    4.38008242084369    5.64895103802146
C         1.76954439067392    5.51576654687606    3.40433182119616
H         1.25328379502578    4.61985790529590    3.06244207774972
H         2.02507573012113    6.10737145110801    2.52463912350174
H         1.08758101496369    6.09525249248913    4.02178640221534
C         7.46352439314133    3.42318370007285    5.73644509200136
C         8.03855231594884    2.15185089759064    5.94977262557027
C         9.25414859766394    1.81855678221229    5.36349611250890
H         9.68889591348625    0.85107008488584    5.57212751922327
C         9.92782273671851    2.69397143465621    4.52917990269050
C         9.33280532768265    3.92395172626376    4.25969975301809
H         9.82591750237934    4.61849593121680    3.59480370156453
C         8.13465708006044    4.27104722703589    4.83687195148901
H         7.68975801937780    5.23214918974600    4.62183969672067
C        11.26537999462386    2.33893983772364    3.95378094539146
H        11.39827911262189    1.26041949545118    3.90964826840634
H        12.05999241582175    2.75139718005058    4.57686054072551
H        11.37733939622332    2.74980506081785    2.95267173491977
C         6.60255425427829    1.35676910525122    7.79842423698828
C         7.36084417448428   -0.16814519655678    6.34011821142226
H         7.87358267009767   -0.54172537015502    5.47838659627339
C         6.58842955146268   -0.81359569330345    7.24550462692391
H         6.32926296479343   -1.84942357396035    7.32700112221991
C         5.29801152056601   -0.16799238624075    9.25378098575867
H         5.82957452921917   -0.81456399218199    9.95515296395139
H         4.39414246118551   -0.68185981594144    8.92202163949822
H         5.02210618069053    0.76240062082588    9.75615638564295
C         2.01226418237644    1.67933968615708   10.66724027870274
H         2.44284896356080    0.68367234611834   10.64233449863969
H         1.02999285246775    1.62427603575097   10.20926031492801
H         1.87399495422171    1.94615050654489   11.70832054461783
C         2.17256345968775    4.62910752013610    9.90093112966979
H         2.20421850533130    5.02434059754794   10.91013484061779
H         1.12822297627158    4.50133990538751    9.63355016550569
H         2.58839163031233    5.38057968943785    9.23729011087207
C         3.11003498682641    2.46346281635548    7.92535507043481
H         4.03719129346833    2.73830737416408    7.42226710490534
H         2.29899427484229    2.96023878334702    7.40290939545348
H         2.96511102172875    1.39560030882430    7.79731977521552
C         3.90064459310619    3.95675430766628   13.16005625604481
H         3.79383730064389    4.99858813349015   12.87360377483793
H         4.22724388737419    3.93558562232939   14.19504243508995
H         2.91441689520614    3.50919705102817   13.11911668134596
C         5.16572884352958    1.22416984158772   12.75947012432139
H         4.24197227344721    0.69373652580262   12.55480340642311
H         5.29339850895388    1.25475145941476   13.83700411195838
H         5.98237159357611    0.63617460538867   12.35313223377753
C         6.84296532154303    3.79275457450679   12.31902385309997
H         7.33211284089022    4.06076804165891   11.38132774164870
H         7.49657865143731    3.09938882686258   12.83679909066186
H         6.77769089341090    4.68567912984669   12.93390642760377
C         8.46684791001174    1.25688524426599   10.41577354286797
H         7.44030644697322    1.57576407236395   10.58367321753583
H         8.84728741361702    0.86792848710109   11.35507378562556
H         8.46357103186784    0.43226638873250    9.70911538540402
C        10.67277359989780    3.20678586920186   11.28150559879721
H        11.39895340653018    3.95337769260985   10.98049473189918
H        11.21946683810869    2.35691329773548   11.67870039675685
H        10.08628422365566    3.63019053676794   12.08946462384744
C        10.77909682204373    1.93883918850355    8.50545747540546
H        10.55512154960417    2.30466801756753    7.51010315164582
H        10.72451117327706    0.85430902561043    8.48356041005249
H        11.80709863790177    2.20544832478698    8.72698233919817
C        10.97117756297818    5.31861323673970    7.80630911400831
H        11.70221063780262    4.73317419768552    8.35146031961761
H        11.40776854643869    6.29289030626260    7.60829016727668
H        10.80268934256484    4.83098031661532    6.85117268153143
C         8.22221151309493    6.58836278241170    7.70647807648721
H         7.57579087110748    6.00219878684847    7.06189608398520
H         8.84323988849764    7.20579452798510    7.06508300509268
H         7.60622529709750    7.26350087393063    8.29192694109819
C         9.75180712742030    6.51028407594863   10.36424612705811
H         9.14021165597646    6.21805584335019   11.21253428737885
H         9.60927626393197    7.57408898582691   10.19798010138314
H        10.78598839739537    6.36546811017953   10.65564518081045
N         5.19848252008262    6.68859474504412    9.32017603622095
N         4.64292906530292    6.07374382954335    7.33984286404269
N         6.32806410120457    3.85022800019709    6.39398710870338
N         7.36173642930974    1.15729506275067    6.69438409062307
N         6.13688342865934    0.13151611399501    8.12444268526823
N         4.74938359564418    3.02454214846717   10.34525783822278
N         8.58123134285604    3.97367458567792    9.18772744500528
Si        3.12540897752862    2.96328570087168    9.78034925166175
Si        5.11918807358740    3.00062525060831   12.02735565111375
Si        9.57372096502203    2.70155609815058    9.79578235174409
Si        9.33958012139619    5.46862563532001    8.79440872156402
Y         6.38140843483694    3.56014959928705    8.72738920133981

