116
CSD_code = LUSMUJ | q = 0 | S = 0 | Stoichiometry = C38H66N7Si4Y | MND = 5
C         5.08474299235265    5.61571948224358   14.88599236838067
C         4.10323230592962    5.87397168752580   16.88406083783436
H         3.35342918645015    5.76879754189424   17.63988556087361
C         5.29292773194942    6.51447768586618   16.92999126785375
H         5.75977704004649    7.03389061957453   17.74033256332084
C         2.88566919221537    4.48158440816846   15.22989560643689
H         3.03527463882916    4.24667766031856   14.16745398709026
C         1.54956392548151    5.19842970506426   15.41457881260717
H         1.33008874470727    5.36119983975047   16.46796573779230
H         0.75385533320999    4.59285484361241   14.99113113984045
H         1.55687785562942    6.15847576587440   14.90691833296145
C         2.92149323477533    3.18930672770437   16.04721936324282
H         3.87952375933191    2.69248229981818   15.92669928540242
H         2.14089807531906    2.51577057914187   15.70721869478427
H         2.76209918568829    3.39344860383353   17.10453113259569
C         7.19228066233876    6.81260607542018   15.43242627315790
C         8.08237933711359    6.07082604446584   14.62655307468468
C         9.42472144169323    6.49833966662616   14.61722670583482
H        10.13406064837567    5.91921253352753   14.04297045524523
C         9.84173290735575    7.62408009446287   15.28293926555481
H        10.87792898658812    7.92573480605438   15.22926445064183
C         8.93883946606481    8.39761997480355   16.01041302331364
C         7.62821822942816    7.96353131576746   16.08249235199056
H         6.92064098648956    8.54385722962809   16.65615917708905
C         9.38544879882216    9.65621923565621   16.69128326512833
H         9.75962831913321   10.36961834364480   15.95758130892721
H        10.19255770512692    9.44719193523985   17.39284888157927
H         8.56431546612195   10.11914371906430   17.23267617218761
C         8.47968952800898    3.89292125611070   13.86306119427403
C         8.69408568255679    3.07245501813308   12.73296833139486
C         9.36724812727540    1.85976078390205   12.86144878740423
H         9.45890654213444    1.22232197121129   11.99253923888837
C         9.90920046886273    1.43732888047779   14.06049326707410
C         9.77185993509345    2.27897237228812   15.16322289940964
H        10.19888136748238    1.98575348773815   16.11174049138326
C         9.08028743645361    3.45951193037203   15.06552537465824
H         8.95603492137127    4.08428786927819   15.93883217194091
C        10.61324903205512    0.11955145109942   14.18282878967255
H        11.58812687593758    0.24821608646482   14.65098856019120
H        10.75255020333773   -0.34044068650285   13.20756562377929
H        10.03384304198203   -0.56336111977912   14.80445539063910
C         7.12716569671888    4.01140904033828   11.03451996617817
C         8.36690350531102    3.50387195608617    9.23678175471855
H         8.62832426532084    3.43546348740834    8.20186780182053
C         9.07007514346462    3.13947204454795   10.33283938093638
H        10.05279490007362    2.72412734774935   10.41495381789309
C         6.09750056709557    4.43910879863628    8.81148165880327
H         5.20310344001063    4.48412088695310    9.44282950826957
C         5.86983831866040    3.41274289145658    7.70182663759251
H         6.67866053383788    3.42397664962431    6.97430768819952
H         4.94709053907854    3.64852358864756    7.17891695804940
H         5.78307389239726    2.41223814540460    8.11785775639213
C         6.38376112313976    5.82158904566626    8.22996883062744
H         6.45796977922206    6.55518833671441    9.02830271008511
H         5.57811324931581    6.11409738761528    7.56250838585025
H         7.31365471616710    5.81739513380825    7.66317766970290
C         2.54514004630577    1.35076460857266   12.67269153694774
H         1.98922060521256    1.89245205689632   13.42934284133627
H         2.74017134134175    0.35374392346387   13.05441600610219
H         1.89807138736085    1.24953264318895   11.80905261758762
C         4.88346610678915    1.19686802249286   10.74661433744591
H         4.24394185215944    1.23128389387498    9.87219984433945
H         4.97789444958850    0.15609934050243   11.04124102054130
H         5.87078476487905    1.54343234572949   10.45636120259816
C         5.42130108604929    2.01473992717971   13.61727061015225
H         6.37740278018753    1.67501299407695   13.23247376208993
H         5.07967167061159    1.26097154209051   14.31983504966965
H         5.60187408403189    2.93580054447482   14.17257187558478
C         1.03455483211182    4.75370702610307   11.74826370333691
H         0.74074740465514    3.85135230650017   12.27371862882412
H         0.24496534717994    4.99117438026868   11.04204622909037
H         1.07772180633367    5.56076433297666   12.47058887632147
C         2.24789978075049    3.36077391792069    9.36414877175635
H         3.10965054271896    3.10149113183990    8.75974527668381
H         1.51838659110450    3.83198871151483    8.71277656790247
H         1.81397677886143    2.43484720135883    9.72370738408556
C         3.21876712807476    6.18050376416410   10.05793991363207
H         4.14739800666042    6.56482883846146   10.48354258023682
H         2.45283707553772    6.92912390609462   10.22688883517591
H         3.34803096924866    6.09941805295604    8.98305885974280
C         3.14789996976580    7.69004812822476   13.13097527696574
H         3.25426895280903    6.62156569155064   12.95098324894412
H         2.30880077722853    8.04150288765921   12.54030672797904
H         2.89034935389465    7.84238692615033   14.17504919123609
C         4.21981323605869   10.03144568622483   11.46861773508224
H         5.03976867310564   10.71452779169757   11.27998309234325
H         3.38962079388258   10.61117725847307   11.86051223722837
H         3.91140404997793    9.61884102359321   10.51425255796145
C         5.20894616833615    9.58554197260220   14.31456924600529
H         4.87416892771618    9.04653569452545   15.19590903720409
H         4.74839897834424   10.56805417803966   14.34354176443847
H         6.27936992671171    9.72124121598228   14.39916345697641
C         7.04426570383134    9.12953848673482    9.69147532319797
H         6.07608263731405    8.86711856151462    9.27966325961023
H         7.80039551850514    8.87624750569008    8.95440999293116
H         7.05828477608118   10.20757564911082    9.80872379610284
C         8.70652700422494    6.93635019386034   11.06371498317590
H         8.77804662777509    6.24015418148559   11.89216365807562
H         9.67459837869079    7.41749066993242   10.96314303352618
H         8.53764730599625    6.37193801549926   10.15296110199924
C         8.24690472364486    9.60119283958887   12.43783559767512
H         7.60804001615927   10.46552894295616   12.58338222729930
H         9.15598073963694    9.94393950536826   11.95237216179371
H         8.52073597999189    9.21763065168163   13.41489823621056
N         3.99075748229552    5.33332749234429   15.63346055036441
N         5.88270034518803    6.35016812565655   15.70122925589415
N         7.68561749033699    5.00662190732462   13.84709830475074
N         8.29300356674098    3.43917487044595   11.42407226834463
N         7.18052110438006    4.01686017277538    9.68115098736584
N         3.97367292039133    3.93126228446611   11.85609518952565
N         5.94211409925602    7.57590838109087   12.07421126580011
Si        4.16448274662193    2.25411293342416   12.18317600378769
Si        2.70633967351570    4.50139968276617   10.83615836497233
Si        4.74954790767282    8.65735610253555   12.69218768762480
Si        7.36345160402441    8.26730179666576   11.38583520254761
Y         5.75609641319407    5.31568471332912   12.56070190161631

