84
CSD_code = LUSPOE | q = 0 | S = 0 | Stoichiometry = C30H48O2SSi2W | MND = 7
W         2.36578795920873    3.73465880801248    7.23545168498981
S         5.12569842535591    3.54319120806464    7.41201572031694
Si        0.09311684821440    6.06118497544150    7.35429088675476
Si        1.61218287637406    1.54831033974644    4.59572866231905
O         3.05052774738127    5.30461220793273    8.26828663704008
O         2.99396859331097    4.74851571510842    5.67398631079865
C         4.11562816265075    5.46579283522394    9.03154738258185
C         5.24265000877157    4.65803456654741    8.81011283374152
C         6.38113753283108    4.73312960137127    9.58368541447986
H         7.21226276247773    4.07763651846490    9.37267421981639
C         6.44388881024721    5.64892918904058   10.62536794098785
C         5.34919048599255    6.47703132403051   10.83622897547603
H         5.38925543108646    7.20598003726028   11.63407370146365
C         4.19564746816680    6.41303975345367   10.07061601716671
C         7.66798750947641    5.73143979353106   11.48703801359511
H         7.78643262613752    4.81472488113133   12.06423467442044
H         7.59960996342039    6.56723017418584   12.17822682181542
H         8.55957937919158    5.85651601261710   10.87467636043405
C         3.03612686884103    7.32041908844512   10.35197321900457
H         2.44344554892314    7.45742100683592    9.45225433802590
H         3.38529546130694    8.28706181328945   10.70891963137100
H         2.39328693994806    6.88638728473619   11.11888271243947
C         4.19764809330915    5.21467452811717    5.41770477873915
C         5.33211562175274    4.77961294906412    6.12138659032969
C         6.60040178286306    5.26820054044674    5.85743641319087
H         7.43452248958061    4.89565337601128    6.43288823679639
C         6.78784006540269    6.22931341463595    4.88028336667772
C         5.67393802697432    6.66524730012056    4.16654162070027
H         5.80743385799423    7.41035587234149    3.39413452998766
C         4.40335794485328    6.18125297895777    4.40359326083904
C         8.14575254242053    6.79435945298565    4.59045686932849
H         8.90745529006696    6.29315456042776    5.18172261432634
H         8.17120909778131    7.85867628829325    4.82332797720006
H         8.38983869856444    6.67860613248206    3.53543207565446
C         3.22932014755936    6.65286904555019    3.59764332414544
H         3.33145164980775    7.70646963358951    3.34581471747307
H         2.30863898842194    6.50096778109990    4.15698093162882
H         3.16065071883312    6.08514694876625    2.66850886662790
C         2.47467026833716    2.65341288661955    9.02092396267666
C         3.15392012066343    2.15471785617429   10.27494652592249
H         2.77541575685366    1.16073953585421   10.53686962379464
H         4.23615784747876    2.07130803102525   10.12300562488948
C         2.89132593351457    3.10954417771540   11.44335130855120
H         1.82238352181316    3.20821644235372   11.61910668385267
H         3.29937690025241    4.09496469085081   11.22529549603949
H         3.36034074533894    2.73668705367956   12.35210089366092
C         1.21690430712668    2.61883762445229    8.59923737500032
C        -0.02628816413279    2.00821219182640    9.20643368813884
H        -0.92429452757684    2.34258886618754    8.67659777259608
H        -0.11956907023587    2.33015074353303   10.24933203420560
C         0.03774954727617    0.47863500194153    9.16557857459995
H        -0.87590974181832    0.04887797239306    9.57226640458880
H         0.87901152763198    0.11696213918079    9.75026456455771
H         0.16312992592835    0.13255545306266    8.14261184835527
C         0.43807247990864    4.43797862753280    6.45464532028803
H         0.50441657684142    4.63520932890270    5.37864336894752
H        -0.42465989751602    3.78304091220654    6.59413390288910
C         1.31894942663534    7.45667002161434    6.85967663013541
H         2.34682968669125    7.09860027054862    6.84414207150451
H         1.26912686383804    8.30193648893257    7.54107157325849
H         1.08579176374546    7.83501383863207    5.86842371563879
C         0.06765746587653    5.72242981639540    9.24785978873482
H        -0.78128456160828    5.09499276112982    9.50347505099949
H        -0.02574692661897    6.63773117002668    9.82510806785452
H         0.97068442468993    5.20139345709433    9.56942883242035
C        -1.63875981921094    6.78030822117713    6.95379801835837
H        -1.81968521620581    7.70242869756290    7.49540060092259
H        -2.42502169226076    6.08458084098415    7.22458502491957
H        -1.74677785262571    6.99749051789204    5.89663224546438
C         2.82964931527333    1.95144595951394    6.00092995809054
H         3.80568286424894    2.08941417100302    5.50356340535051
H         2.95037428146716    1.04521336056149    6.61737412840240
C         1.61901538532521    2.94282259498734    3.27778368563967
H         0.62095639831880    3.17190665899517    2.91961009963223
H         2.21742848167176    2.66648382329752    2.41549969081803
H         2.04141861023645    3.85305819341670    3.69208061137267
C        -0.15519012164864    1.21491787811631    5.26667369344027
H        -0.23451241134686    1.50691387835172    6.30944579121637
H        -0.40496518343930    0.16103328784488    5.19296840511371
H        -0.90738582914411    1.76347171739176    4.70919577249264
C         2.14238231593572   -0.05478840996235    3.67904695020673
H         1.45867418409261   -0.28434555569229    2.86809874308240
H         2.15194048601220   -0.90962084037537    4.34815460112257
H         3.13663117686516    0.03424970770458    3.25179953756557

