77
CSD_code = LUSPAR | q = 0 | S = 0 | Stoichiometry = C32H42CdN2 | MND = 3
Cd       15.74549566576120    6.44073821210179    8.21216034818487
N        17.04964838734296    8.14448405580571    8.69611047580415
N        15.78298260086065    6.30318559521355   10.49964891834097
C        14.80138450940835    5.59068744196356    6.46669568513860
H        15.09272573350969    6.14943141959646    5.57806049438660
H        13.71453951017021    5.62627063591517    6.53585362277312
H        15.07710327261100    4.55049541664905    6.30032414607224
C        17.45776145288390    8.74112802322372    9.80727471500020
C        18.26889646087463    9.91409759022486    9.75572622414893
H        18.53236519010986   10.29403884269771    8.77823383677986
C        18.70819523265288   10.54480764381681   10.88018964698426
H        19.32078868666862   11.43188806639505   10.79621372572413
C        18.37500702753785   10.05308332987671   12.15134656702052
H        18.72702277844372   10.55839042107901   13.03760287128935
C        17.60446498294262    8.92951240149435   12.24491707304109
H        17.34342405551153    8.54049640289933   13.22060687529210
C        17.12132202250539    8.23997013420323   11.11076335803100
C        16.33392233505650    7.09131427102579   11.36523813719305
H        16.19991521087683    6.85361416759798   12.42940417976688
C        17.36976521035818    8.66472231498472    7.43094381688739
C        18.48304359326344    8.16483519990571    6.73523616542730
C        18.71886455551212    8.60073727157809    5.44045417578141
H        19.56641900406262    8.21737046307086    4.89165277546474
C        17.88443136351466    9.52459252211580    4.83854910833538
H        18.08417339827855    9.85870542241230    3.83097151131844
C        16.79193932699515   10.01695992505254    5.52812220702847
H        16.14406994038705   10.73612600306130    5.04849087201124
C        16.51744112108001    9.60082203122063    6.82212758604723
C        19.38523637261189    7.14017171015484    7.38863790051602
H        19.10821715669337    7.06477819926303    8.44736833500664
C        20.85681109947135    7.54947941625757    7.31892204409142
H        20.99246259965656    8.54066851755204    7.74567813581712
H        21.21464937774750    7.56382446834263    6.29246212101800
H        21.46746403585451    6.84620816181019    7.88170921708862
C        19.16963025894834    5.76676827338274    6.74365938379504
H        18.12055006992436    5.46289883164878    6.83837822749537
H        19.79555269379173    5.01923874384732    7.22819680607742
H        19.42471904020975    5.79734361425732    5.68627557265998
C        15.30607748041201   10.12709746017382    7.56148851059100
H        15.30040750663536    9.69707489534147    8.57142591387591
C        15.36144912860031   11.64923473211616    7.70096910941191
H        16.27375087307114   11.94678018175878    8.21317296807130
H        14.51098979518146   12.00483802158333    8.27928198369082
H        15.33941465619010   12.13239898557974    6.72711865345975
C        14.01811358165787    9.68772469225098    6.85787604530722
H        13.98095167664808    8.59731839331536    6.78273969644651
H        13.96504216749534   10.10323452036677    5.85408994442264
H        13.14840701615608   10.02881021280709    7.41675895774205
C        15.01603308063659    5.20703781512740   10.92824038367376
C        15.56911595909644    3.92131425364606   10.84544055612318
C        14.78475201801104    2.83163072467315   11.19386210643042
H        15.19749587742099    1.83537605786528   11.13964650748219
C        13.47904668790954    3.00373030243880   11.61127855256366
H        12.87831803297400    2.14663160956786   11.87723866034462
C        12.93950695955894    4.27479587884286   11.68562206514661
H        11.91615939818525    4.39275304650859   12.00552670045239
C        13.69248885610520    5.39286151719915   11.35998846168790
C        16.99741887762961    3.72446102616530   10.38303925573933
H        17.44079987936994    4.70948421215315   10.18166604611722
C        17.83516405498377    3.04508771321774   11.46829694804145
H        18.87272106234224    2.96979383254000   11.14969480819610
H        17.46706925744968    2.04319941121469   11.67533055600376
H        17.79888214723213    3.62067683833555   12.39062262640270
C        17.03487721675507    2.91727955655304    9.08188369736280
H        18.06000140102864    2.82005541501358    8.72914500221782
H        16.44379093215886    3.41699505392976    8.30989428682495
H        16.62844668616307    1.91982526834772    9.23292256194025
C        13.08803594085246    6.78104720523107   11.38642344358856
H        13.89328576242990    7.51044815842061   11.52508958780424
C        12.08473661172068    6.97751783279998   12.52295981111741
H        12.50672689482986    6.64466301746914   13.46857631396126
H        11.16485641501523    6.42805599021105   12.33923517322859
H        11.83153942887157    8.03194856015485   12.61124739688142
C        12.42549501090431    7.06675039265992   10.03316460433259
H        13.16671027608844    7.01914139203272    9.22619944520348
H        11.97856428660912    8.05901439120180   10.03451315062463
H        11.64615177152712    6.33362626948459    9.83262264463382

