82
CSD_code = LUSQUM | q = 0 | S = 0 | Stoichiometry = C33H40F5N3Zn | MND = 3
Zn       10.04678110598949    6.70662409128239   -1.63533762074521
F        12.82441778121552    8.01534693213466   -2.89208737523717
F        15.30642668980678    6.88809582251394   -3.04423048108181
F        15.73383335384985    4.41135071572537   -1.98466660736007
F        13.68004242233401    3.07383617003241   -0.77538822865014
F        11.19934247874502    4.25431720683700   -0.64811224345400
N         8.66780462755604    6.78932317509734   -2.92864443049440
N         8.97429388769671    6.93463555731187   -0.02739880832787
N         9.73302344135268    9.46352801290570    1.22726409141945
C         7.72044681039751    7.23677527956393   -0.14401487505125
H         7.17662742843075    7.46131009388721    0.77850589992933
C         9.57493962600822    7.00304056971969    1.27827193730880
H        10.18554622112060    6.10962272061005    1.43240036004271
H         8.80559967597802    7.04705907163046    2.05834320792863
C        10.48699721061786    8.24519410162379    1.37671428079831
H        11.02051523462628    8.19759323911828    2.33829877321457
H        11.22750940844204    8.17251156182706    0.57852184950270
C        10.22111935280979   10.45561468761634    0.28286411528964
H         9.71600652503375   11.39104568053360    0.53715654029162
C         9.79482511193213   10.08381648509812   -1.13966201017379
H         8.72054975606084    9.92091663869265   -1.17676707638926
H        10.29995848528159    9.17169549865714   -1.47285236688494
H        10.05637125143579   10.88143446764002   -1.82975317627057
C        11.73428173229584   10.71655235436526    0.32592434192393
H        12.08198407074313   10.82809557084416    1.34930729705416
H        11.95848213441897   11.63262698106005   -0.21480784484113
H        12.29151194725563    9.91038350062373   -0.14521998574572
C         9.08896651281319    9.94278985561971    2.43959345613305
H         8.86791787978451    9.04835788461961    3.03304081794664
C         9.96030214295897   10.86560613222996    3.30293785295463
H        10.90329178131130   10.38106200852894    3.54762449851298
H         9.44437848606794   11.09614498886396    4.23161006020857
H        10.17110073897400   11.79923376601943    2.78787110256489
C         7.75238478092746   10.61358439543018    2.11099597777368
H         7.19064090352185    9.99837575982726    1.41301594745862
H         7.89722828282360   11.59320459692498    1.66344009982943
H         7.16834881346991   10.74096329394792    3.01903879972182
C         7.37762542986329    7.00056502597960   -2.64801735218646
C         6.92529017325847    7.26475338338755   -1.31475677518853
C         5.55308364668134    7.54554730751083   -1.11472700569118
H         5.22439001658454    7.76508633399150   -0.10791684045038
C         4.64222391886264    7.53461908941892   -2.13185565541451
H         3.60217808642798    7.75164399921245   -1.94515894269862
C         5.07539342129662    7.21435851511334   -3.42520286926752
H         4.35918813562545    7.16993623425296   -4.23311835853449
C         6.39249074120425    6.95637179737437   -3.67155734060212
H         6.71554792259689    6.70187429839255   -4.67005738271732
C         9.06458497127668    6.54699796018166   -4.26898751157968
C         9.21040956269670    7.61076390090545   -5.16933265376675
C         9.62639210508075    7.33524766124294   -6.46409979827832
H         9.73901177215975    8.14337588086836   -7.17083374883155
C         9.89531490593753    6.04168615568440   -6.86630586350303
H        10.20666868173864    5.84344087760481   -7.88128440081869
C         9.77242526174397    5.00162976840464   -5.96478267797356
H         9.99030978843172    3.99533059807592   -6.28638230893365
C         9.36760058321218    5.23492396543740   -4.65841508066196
C         8.95469752222090    9.03945220974453   -4.74812105012696
H         8.65155889872830    9.04713731454834   -3.69712102692094
C        10.23890823776914    9.86289508725648   -4.87452060734622
H        10.07087997747533   10.87470897863857   -4.51181411249571
H        10.56217578456883    9.92274831652827   -5.91057555850359
H        11.03872555957821    9.41225612960042   -4.29175323654711
C         7.82593604416504    9.66937731560282   -5.56682024699430
H         6.90562749999950    9.10224811048128   -5.44767934395387
H         8.07969791830745    9.69914142361822   -6.62357692640191
H         7.64635160182700   10.68786350701959   -5.22905947536089
C         9.21761004025643    4.08989041069232   -3.68291093305614
H         9.26098690757902    4.49465240319050   -2.66044938156315
C         7.84683288103955    3.43218176108825   -3.86296111153886
H         7.05260496755202    4.15429341801425   -3.68589198534090
H         7.72832035723669    2.60834260987255   -3.16263269818625
H         7.74367675115045    3.04669198671817   -4.87543454283937
C        10.33415817560546    3.05370763342651   -3.81601964798449
H        11.30496777935779    3.54340879982314   -3.86313261790116
H        10.20818961862268    2.44714759065927   -4.70884141995449
H        10.32442006185734    2.38844586628658   -2.95557343450838
C        11.95905179745624    6.14654440373179   -1.77671265075778
C        13.02724841222413    6.78822824783152   -2.37830457762616
C        14.29876609055222    6.22907684848838   -2.45911706534847
C        14.52005775800737    4.96681879779622   -1.91834413251150
C        13.47326703209013    4.28693939964377   -1.30269087571022
C        12.22605510598582    4.89447980769803   -1.25014695051951

