110
CSD_code = LUSQAR | q = 0 | S = 0 | Stoichiometry = C44H60O2SSi2W | MND = 7
W         2.32487798540962    4.63115290279020    3.91451454743521
S         4.49177738920771    3.61446986180056    5.47284608480743
Si        4.34574880309261    6.80769755785227    1.85718462917787
Si        0.32073190568881    4.95548263304538    6.78239551208408
O         3.52395395944324    3.50762248542541    2.75863640179963
O         1.78031920106466    2.92277078595076    4.72543789164495
C         3.83160621152531    6.23890643208376    3.59291423320300
C         5.98436362704400    5.96966699070438    1.31576445595435
C         2.96831113790509    6.53103347292646    0.55253545070299
C         4.69514082465064    8.69183023351032    1.83468087374934
C         1.89277059612614    5.54168217877197    5.90332557880992
C        -1.05763635543112    4.61216556563980    5.49295749438922
C        -0.39515405063165    6.28331787314438    7.96361355870729
C         0.67567119094506    3.42767093473878    7.88747397463273
C         0.86088774252491    5.87490903886285    3.09075858141947
C         0.76271901052955    4.64377410128988    2.52604738034500
C         0.06596999465846    7.06700375573923    2.80117079659407
C        -0.24904718912383    7.96649420441994    3.82454103125443
C        -1.00070625828942    9.09664606216599    3.56886007472236
C        -1.43886665611093    9.36772349797129    2.28242010488564
C        -1.12401852638707    8.49288725458476    1.25510101791619
C        -0.38636083764154    7.35334604727607    1.50897831578210
C        -0.22334877342365    4.11855596958479    1.58863508490904
C         0.18020869993286    3.37108174347411    0.47752695313940
C        -0.74900511106134    2.84479430448087   -0.39764772848018
C        -2.10347172766648    3.03237355830934   -0.17510858813367
C        -2.51904006800873    3.76248445578189    0.92716403426656
C        -1.59464620642634    4.30659819941009    1.79614318870565
C         4.74164665492001    2.99200191671199    2.83031498376627
C         5.44914745913751    3.10093035107671    4.04021032449813
C         6.76417214352961    2.71609591466162    4.18546292695240
C         7.42917712117525    2.16410950771231    3.10225744315684
C         6.70982200989194    1.94331516460269    1.93408616182326
C         5.38395906374518    2.31340337586306    1.76560772907007
C         8.87174473337952    1.77308038656229    3.21815433136457
C         4.59974558339286    1.95303319071555    0.51127855275321
C         5.40597845613991    1.10462409259768   -0.47650025885942
C         3.37202596766064    1.14003892839675    0.94754137915578
C         4.15041481816261    3.22986107659161   -0.20563918412780
C         2.40787397851306    1.84963654002223    5.18668219404171
C         3.71033185907123    2.00790073609160    5.69118277050383
C         4.42816062644706    0.97985198976792    6.26385549627857
C         3.86484291666269   -0.28356784265167    6.32922992325342
C         2.59906216871275   -0.46833098508378    5.78682525022520
C         1.85003960653176    0.54755865914325    5.21137791743018
C         4.61989663829076   -1.41624729681756    6.95709274877802
C         0.46332345161494    0.28615755759792    4.63507190709598
C         0.38730350269722    0.81108011558725    3.19481056515841
C         0.10328966146970   -1.20327706606424    4.60117469800100
C        -0.56663620805299    1.00796505997882    5.51123410251854
H         3.49594686192117    7.14993837639331    4.11126734215454
H         4.77222014863920    5.96365891026309    4.10305820881489
H         5.97216252554452    4.89708468892711    1.47907258996819
H         6.18961594405160    6.14478462996931    0.26417844975639
H         6.82092908544682    6.37238066549539    1.87931481620253
H         2.30088942123304    7.38688823626152    0.52267479290209
H         3.37404672104813    6.39917755298174   -0.44575718743226
H         2.36415866037689    5.65675021175758    0.79201688411029
H         5.49108198348859    8.96132120363158    2.52146382294454
H         4.99263084799317    9.02331747862027    0.84544076464688
H         3.81280936618900    9.25767477011760    2.11716859851367
H         2.72991526584461    5.32343567294030    6.58804686245691
H         1.85408289919544    6.63800559337784    5.86488077136647
H        -1.89100695855202    4.06114485367023    5.91932916401632
H        -1.45356501069753    5.54645732719309    5.10383321452385
H        -0.66754301984086    4.04307377577416    4.64815987509567
H         0.32229835755134    6.56535045278260    8.72718830980321
H        -0.67523355825205    7.18535099138505    7.42941223701628
H        -1.28221065228902    5.91777342668647    8.46976676190304
H        -0.24189933494731    2.93473581255690    8.19317675748350
H         1.29450548186023    2.69074934096727    7.38442109267871
H         1.19876906949579    3.72804446772193    8.79070583970943
H         0.09138897177007    7.75395216955911    4.82800817057877
H        -1.24423311607466    9.77457043985977    4.37475395662633
H        -2.02213383530546   10.25442132267521    2.08213847062008
H        -1.46319197970549    8.69820474112592    0.24965466666484
H        -0.15251664966544    6.67198574459944    0.70444355924277
H         1.23576112942378    3.21945400022082    0.30336534630792
H        -0.41672924858266    2.27909926795168   -1.25680866743656
H        -2.82994610132005    2.61376720960279   -0.85607732540587
H        -3.57401152785029    3.91510083203976    1.10583268853378
H        -1.92417348683120    4.88304913822433    2.64775308351204
H         7.25748319876040    2.84232814800265    5.13696457663458
H         7.22319831370683    1.45321296512264    1.12301520329347
H         9.00769958749270    1.04585124798984    4.01782670500754
H         9.23236650594942    1.33852475971467    2.28968972206752
H         9.48192206942623    2.64407934877767    3.45361102114337
H         5.73805413846497    0.17484625410598   -0.01986263322890
H         4.77391469502392    0.85476921415725   -1.32640897654818
H         6.26919730106877    1.64884389285249   -0.85268608556430
H         2.74800317870081    1.72611786221922    1.61841838886663
H         2.77636625928433    0.85671737701197    0.08185608353866
H         3.68459894807708    0.23454268865355    1.46633059883026
H         5.01225202573619    3.78492483101322   -0.56827419266567
H         3.51785289997887    2.98132620992197   -1.05599606104096
H         3.59454561298484    3.86561848769434    0.47729344397693
H         5.42177588310409    1.16667515955126    6.64114266079252
H         2.18817147478026   -1.46374789295196    5.82485116271683
H         4.05043071035878   -2.34029837705869    6.90407018786368
H         5.57304668782434   -1.56515368256647    6.45129733446331
H         4.82912712805618   -1.19730617734504    8.00348849315211
H        -0.62579552491510    0.70962851601556    2.81052447464536
H         0.66017125365968    1.86498780056602    3.14155792373696
H         1.05698574422439    0.24241022761273    2.55298416137777
H        -0.86780588726677   -1.31917277284993    4.12430973503111
H         0.83005853754130   -1.77302763544140    4.02624345026537
H         0.03209287507896   -1.61905926623332    5.60359180854367
H        -0.54657793615475    0.60793037986998    6.52330122976296
H        -0.34602801469465    2.06801456665569    5.55329245465158
H        -1.56660465994477    0.87424908668644    5.10380031351714

