59
CSD_code = LUSRIA | q = 0 | S = 0 | Stoichiometry = C22H30MoN2O4 | MND = 6
Mo        2.82406279533143    1.45887963251311    9.43639194402139
O         2.73148487125830    0.91997725149854    7.70244700794073
O         1.95773993865469    1.46792487286258   11.08011479502242
O         4.11068476031009    0.52445420707927    9.88164037620181
O         3.17264805335938    3.06462858262043    9.24748068010250
N         0.52582272503036    2.22923407710394    8.73369555628042
N         1.17485659232327   -0.52254801328902    9.35711388210510
C         0.17657688898216    3.31757519473527    9.64529783445223
H        -0.77151056393377    3.79373012578631    9.35447305693739
H         0.97849120222688    4.05461536154311    9.61977886238140
H         0.09794832588956    2.94170447566373   10.66575405327392
C         0.66910548079708    2.79071321031636    7.39139492616681
H        -0.23829867143499    3.33980868038410    7.09818526935562
H         0.85412902574399    2.00054934080854    6.66565126584147
H         1.52383591486382    3.46649696210134    7.38777466429918
C        -0.50444283190306    1.18794587864740    8.74644104930904
H        -1.29760134961696    1.40712665680678    8.01399677915642
H        -0.97042651474288    1.17472260605398    9.73580926003738
C         0.07893564063145   -0.19761325277443    8.44347034973559
H        -0.72613529687934   -0.94965276667339    8.51209647812698
H         0.46636632902557   -0.21698159081836    7.42079541846988
C         1.98556894013460   -1.63848479598636    8.85232777260535
H         1.36671536043971   -2.55442660865151    8.81822368913043
H         2.78501724042702   -1.79947995280713    9.58798038842781
C         2.62251365958100   -1.44831647408680    7.49779752176992
C         3.01640884462465   -0.18986946692109    7.02686262183570
C         3.70546135550649   -0.08727141499512    5.80264286788553
C         3.96348325505312   -1.22975139121585    5.07061594344009
H         4.50046932881706   -1.14696304456581    4.13612600362817
C         3.55142323774482   -2.48385399996622    5.51015304248247
C         2.88983810758443   -2.57229709301107    6.72319394364449
H         2.58260568645216   -3.54253417135088    7.08988674994564
C         4.15468094239502    1.27378284268566    5.36121353860976
H         4.99462358106822    1.20074356913578    4.67525132771879
H         4.44335831744228    1.85933715889911    6.23836993228298
H         3.34215762937080    1.80178403820449    4.85935964260709
C         3.84540258632471   -3.70599354443439    4.69182496122686
H         3.35401516360522   -4.58109925597509    5.10894173521302
H         4.91850634341834   -3.89297280574602    4.66773495473076
H         3.50849197130260   -3.57077247035590    3.66529933436803
C         0.64717240064177   -0.90975988520789   10.67797660671163
H        -0.18401323793993   -0.24233188802585   10.92985078957263
H         0.25327760394524   -1.93929536216706   10.64076888990103
C         1.68089252781960   -0.78000156728054   11.76253698761266
C         2.28426632695632    0.47220700253240   11.91230596434467
C         3.25038952838253    0.66846383970751   12.91244471243375
C         3.56538644633897   -0.38903166859837   13.74591842952683
H         4.31351142152579   -0.24693286554368   14.51334997889750
C         2.96191007559414   -1.63753399995785   13.61642322920056
C         2.02292931435727   -1.82094612045089   12.61445079278437
H         1.54984297271942   -2.78572010962923   12.48806012022688
C         3.91769956698611    2.00693673048002   12.99407747792192
H         4.76256305504112    1.98139254527250   13.67700663603545
H         3.20871134201471    2.76543060216220   13.32940331716370
H         4.25981532272584    2.29107304882795   11.99038391019440
C         3.34801003536495   -2.75902277170907   14.53531063638739
H         2.72845979556350   -3.63522582087731   14.36202695139584
H         3.24036301861490   -2.45581798477620   15.57555436020369
H         4.38959761614004   -3.03553633658419   14.37544072871411

