39
CSD_code = LUSTOK | q = 1 | S = 0 | Stoichiometry = C13H22CrN3(1+) | MND = 8
Cr        3.72979962499577    3.81682333792060   -2.09381845919307
N         5.17625394112210    3.82929377846350   -3.15618257937960
N         2.81168392481165    4.85542211618807   -2.92532841843114
N         2.85467694505787    2.19644985615304   -2.80534299183028
C         6.24532959248228    2.89772885397455   -2.87284527744081
H         5.95292230074587    2.32082405110630   -1.98643410925786
C         1.31204132016312    0.46107930321863   -3.90116525801489
H         0.27228719954608    0.75348299389464   -3.74341323019665
H         1.47746484836404   -0.52510015106827   -3.46500914293918
H         1.50625187617510    0.41862637032084   -4.97399798714817
C         4.26280348712441    4.88233222664200   -0.19829641356777
H         4.69187008077119    5.86934919995375   -0.07370399672489
C         5.40882472207007    4.69321347932513   -4.29340633125324
H         6.38233035061427    4.46759615854563   -4.74152300777802
C         2.87199312269112    4.59584443100845   -0.14824481423590
H         2.07536582684731    5.32458526000564   -0.11880983246664
C         2.73473546725396    3.20341459893623   -0.10009745473950
H         1.80575791160016    2.67034414502190    0.05412104527520
C         4.04229736247352    2.62959501623036    0.06298566307186
H         4.24210157003712    1.58477190676024    0.24252247222074
C         7.58014327711070    3.58957371287621   -2.56502355883815
H         8.01903800704845    4.03797287345240   -3.45174803313948
H         8.28234192183737    2.85584953095541   -2.17817585942986
H         7.44172237908561    4.36760826557641   -1.81654044489032
C         2.16138839270296    1.42129788728243   -3.29808009664033
C         4.32221558848307    4.48633249170435   -5.35197075774502
H         4.30731179195360    3.45371528105539   -5.69449589085096
H         4.50917243915762    5.13989918608376   -6.19801164892225
H         3.35366867574412    4.73639222914294   -4.91744069031519
C         6.39935807987344    1.88216246546109   -4.01698889889751
H         5.43636808217247    1.42318249915977   -4.24019825270763
H         7.09603259888050    1.10541664779110   -3.71341038169300
H         6.78330681904193    2.34805835775262   -4.92013034909817
C         4.96653687351397    3.65238556847345    0.02849610854839
H         6.02894251154565    3.56676916919121    0.19285521492923
C         5.41068634243332    6.15637804980617   -3.83509072858497
H         4.43064587668586    6.40277115045031   -3.43031110136934
H         5.61868627336038    6.80169303080791   -4.68304708187185
H         6.17094259440953    6.32266467036956   -3.07519742447040

