47
CSD_code = LUSVOM | q = 0 | S = 0 | Stoichiometry = C18H24CrN2O2 | MND = 6
Cr       10.07261412207258    1.99865009882373    5.56333286211090
O        12.15988171048985    1.63029417710737    5.09155849179534
O        10.97506052470474   -0.01223884980275    5.83496990832819
N        10.36759740203465    3.69823908205329    5.03957213290798
C         9.84394113017052    4.94058876963337    2.95866614262927
H         8.80608274239233    4.81798425862353    3.25818599139062
H         9.91729814431988    4.81585764057221    1.88101510706785
H        10.15301712163872    5.95411665592742    3.20228025809257
C         7.94040849047907    1.89867132966726    5.02611157766829
H         7.24223050853838    2.55569114517294    5.53267490423304
C         9.11124537825710    5.12563969123085    6.57028718810214
H         8.32302843754064    5.28177980780739    5.83759806574447
H         9.18033152054482    6.00142940654156    7.20897092262342
H         8.87258823790791    4.25324738778212    7.17484967229543
C        11.55296523505292    4.69652013704149    6.92628994877094
H        11.28963314987979    3.84779665507522    7.55537808861117
H        11.63614102347297    5.59161812893205    7.53645409667128
H        12.50806180142244    4.49302739755092    6.44894470830002
N         9.89119119867196    2.27848537542024    7.14745561400348
C        10.45171212466092    4.87634433044485    5.87637436867864
H        10.69621512693428    5.75056011500515    5.26131400106848
C        15.48252828978896   -2.12218885762637    5.27023714977212
H        16.34536621492316   -2.77053201077973    5.22368523740399
C        12.08091899762802    0.42115968147793    5.45139989347669
C         8.60550893720739    0.68676059898679    3.20547304484261
H         8.88443501997654    0.40158358941895    2.20407509888715
C        14.26790126890670   -2.61980101716852    5.71666792954699
H        14.18588206748131   -3.65370882494661    6.01786177908472
C        12.21532795625159    4.28117189137783    3.49218324394811
H        12.42063517805783    5.25964860120640    3.91989559036837
H        12.46460275461703    4.30779358216445    2.43365940591435
H        12.84002436660201    3.54158084061299    3.98563334046745
C        15.59495946366144   -0.79537795642283    4.88485427731188
H        16.54387632116051   -0.41192824882299    4.53961573772950
C        10.73655078422084    3.90019110831960    3.65843563995139
H        10.59318285140716    2.93624712696340    3.15033594072410
C         8.62909126921636   -0.16737054325898    4.33450700498241
H         8.91060070377595   -1.20751447195768    4.32319547077820
C        14.49330145282616    0.03733895780798    4.94302278985848
H        14.56144281147042    1.07458823426732    4.65027201175699
C         8.18587916136423    0.54648946065699    5.44093596400581
H         7.94606623649966    0.13900221110439    6.41119365131250
C        13.27251456881452   -0.46071211516847    5.38849506732250
C         8.14344701270494    1.92081291274590    3.60299777321047
H         7.94028051927541    2.76012135872466    2.95836793282495
C        13.16217917486962   -1.79291582308867    5.77700334675967
H        12.20625148611310   -2.15494302722052    6.12451162666191

