56
CSD_code = LUSVEA | q = 0 | S = 0 | Stoichiometry = C19H30N4O2Zn | MND = 4
Zn        5.53733739116985    3.34401536814023    0.78964261608828
O         6.62693858826528    2.48846509044816    2.26162549547500
C         8.47622248285735    2.66702934910064    0.70846197464943
H         9.52227826556783    2.37227179855962    0.72257569049843
O         8.64136928731436    1.78886990391703    2.93003216887910
C         7.84160584840154    2.25960333859993    2.15185402080350
C         3.55038417478163    3.46125237448004    0.93449098410777
H         3.08258514260461    4.04917989314319    0.15015660423391
H         3.23043379870729    3.89239151394159    1.87793662951635
H         3.10663052879565    2.47090878991000    0.88881877933144
N         6.53200449960125    2.15316330581666   -0.64720144330456
C         4.82634496017219    1.20493792973252   -2.14590191330498
H         4.34772552555033    0.25245431166908   -1.92452801257613
H         4.88519209248914    1.30975501467131   -3.22819205047184
H         4.22149148520593    2.01015875187999   -1.73816909283547
N         7.81653572822585    1.93483696851574   -0.33426868524370
C         6.18543746933113    1.24444175885757   -1.54950799964022
C         7.27647390937597    0.40899208686483   -1.80948756177868
H         7.31161280763795   -0.42165265444877   -2.48387661698780
C         8.30265399575094    0.86713332901505   -1.00672522054385
C         9.67851045233771    0.33423537718984   -0.84269819523750
H         9.88540453930486    0.11455872241644    0.20424077982223
H        10.42232905122299    1.04275886863317   -1.20695549133055
H         9.77405509683476   -0.58490093867502   -1.41396779792794
N         7.18181548247615    4.66712859340717    0.42175873484747
C         5.40218547768857    6.93700385481692    1.49098888618131
H         4.55961273002878    7.61795873257127    1.39647219795329
H         6.00378334749449    7.24496163636931    2.34360043762527
H         5.02370259951989    5.93434083197118    1.68038579427739
N         8.38597884832886    4.08919090018521    0.54366885734252
C         5.38549042207994    6.55060632282683   -0.99256498415196
H         4.54208334336755    7.22917899407211   -1.09524404651002
H         5.00795903351452    5.53899441179126   -0.86463632505127
H         5.97351110921346    6.58763068394482   -1.90727408109695
C         6.78429992118935    8.37236843147368   -0.01480867091879
H         5.95504349475863    9.06144047806588   -0.15592021586186
H         7.41508821632780    8.41083010184891   -0.89991579835405
H         7.36140584908482    8.70856059836845    0.84290372019396
C         6.24423976312043    6.95693237523838    0.20971890618120
C         7.37646079584089    5.98045340029766    0.36367609563677
C         8.74295648473086    6.24345392605240    0.47293842555321
H         9.20833982805091    7.20471083089199    0.46048289195925
C         9.37217362880868    5.01678871747179    0.59945418709150
C        10.84042201617243    4.75680478330392    0.82014915674188
C        11.60126048415749    6.08185563160044    0.66880782795035
H        12.66116240305429    5.91529508594182    0.84722697917071
H        11.25320406142525    6.81558852324641    1.39045193057556
H        11.47901300862132    6.48490648673605   -0.33391070991051
C        11.41365739175610    3.76219712736848   -0.20814393590488
H        12.45486791409833    4.00278302587278   -0.40970877975416
H        10.86967953635924    3.81539537077430   -1.14927075059901
H        11.39195161653302    2.74127307928962    0.16221358435937
C        11.05911997928122    4.24425978377308    2.25256819702379
H        10.75599672468903    5.00473744380188    2.96887780401279
H        12.11449175897648    4.03050982128856    2.40674915603708
H        10.49028560775722    3.34349976295736    2.46804886519930

