60
CSD_code = LUSVEC | q = 0 | S = 0 | Stoichiometry = C21H35CrN3 | MND = 4
Cr        0.75425018340235    3.37402410809544    2.40172468912711
N        -0.77651042615422    3.26701165812107    2.91491882234581
N         0.62532103493229    3.50948860073906    0.60742204493428
N         1.58915617274300    2.04549577812966    3.28907754698537
C         1.33745052294562    5.15016086308295    3.37107084327604
C         2.74302050265372    5.31872709579680    3.02068469605775
H         3.55012828268141    4.76710408660826    3.48281637912622
C         2.90039407700116    6.28869398909980    2.08325050412593
H         3.82398775509232    6.59184237088660    1.61848369024864
C         1.61825434043270    6.87644830484302    1.81271429831573
C         1.23313295554725    7.92116372969693    0.97885847935479
H         1.95918293850888    8.42403513115408    0.35418569560280
C        -0.09207141454478    8.31184840818897    0.97726532715556
H        -0.40877672752668    9.12624159827818    0.34080302801893
C        -1.02719288456177    7.67914125031911    1.79387693470004
H        -2.05256598848454    8.01936188824995    1.78149527456699
C        -0.66292908023330    6.62963261912310    2.61755970580088
H        -1.38908311987434    6.13262739743955    3.24482615674081
C         0.66135441461198    6.21181190977021    2.61888393462296
C        -0.55370336606029    3.30791397948280   -0.21856005950239
H        -0.28593397123028    3.39793663869539   -1.27997098320566
C        -1.61440922301176    4.36077682183769    0.10545441655593
H        -1.86419395687862    4.27930333701963    1.16142136293207
H        -2.50516729662460    4.19858455186029   -0.49587098452203
H        -1.23178329294340    5.36069281252085   -0.08660687002815
C        -1.12649710802113    1.90424763887100    0.01107748748217
H        -0.37694473909464    1.14322497217605   -0.20190945996799
H        -1.98579789596473    1.73957783346562   -0.63433888444617
H        -1.43249255385851    1.82092682513494    1.05138653466448
C         1.85768193234389    3.72649346219647   -0.11515820181128
H         2.63642718378814    3.93449843962884    0.63567134072155
C         2.30477232714758    2.49644519252734   -0.92362226609510
H         2.34407343337402    1.61487756524570   -0.28642836414441
H         3.29378637701063    2.66874915861156   -1.34328193017287
H         1.61627491019455    2.29903545180337   -1.74254605788364
C         1.80310890152984    4.96059261214502   -1.03111733771837
H         1.20747310813775    4.76891438956788   -1.92060236367212
H         2.80987453451093    5.22511322258385   -1.34687973111470
H         1.37099305688025    5.80249555417703   -0.49542700609019
C         2.93668136883142    1.70903833269847    2.88843918821493
H         3.23714059301079    2.44307621517444    2.12645013857486
C         3.95078166720009    1.82181979194128    4.03980585068814
H         3.82667039192071    2.76845641189872    4.56205998931063
H         4.96263135640077    1.76932879965587    3.64350483585492
H         3.82601425760120    1.01722592327437    4.76046276399203
C         3.02832424130627    0.31676063867364    2.23981329926986
H         2.90670980874149   -0.47128360577979    2.97937674205183
H         3.99823025187929    0.19067020255576    1.76323379452192
H         2.24618858747242    0.20418781407123    1.48937682814940
C         1.02134409497520    1.17926253039746    4.31197615256708
H         1.77134848518654    0.44640063573631    4.63836083960454
C         0.60182668883537    2.01087100202412    5.52783630736632
H         1.45333279869510    2.55780573060899    5.92905876656114
H         0.20352969880339    1.36422668868723    6.30574645547263
H        -0.16433900176753    2.71753784588100    5.21485407412373
C        -0.19027609376787    0.41686929834517    3.76910378335628
H        -0.93799669261225    1.14533571536042    3.46070723895137
H        -0.60535698347074   -0.22562090774789    4.54095774092035
H         0.08773881275054   -0.19216375034538    2.91165948090809
H         1.08992976761911    5.06483343970417    4.43340703645121

