35
CSD_code = LUSVUQ | q = 1 | S = 0 | Stoichiometry = C8H18CuN6S2(1+) | MND = 4
Cu        0.10890669827535    9.75571521636583    3.55857782671728
S        -1.17849382578299    9.19721286599993    5.42982570377088
S         1.50628136348795    8.29539534123087    2.38544523209910
N        -1.76412661042512    9.93547287080692    2.58337276052902
N        -2.78003278093252    9.40370017333498    3.31221030663207
H        -3.68421799065488    9.26123767513155    2.86958612292837
N        -3.70417724914848    8.57780975841756    5.24619587379242
H        -4.59781342504042    8.45983263223594    4.79880179608601
H        -3.60431285274483    8.29995583961646    6.20788980737908
N         1.92473862195968   10.65244982285789    4.18862333742473
N         3.00646160885665    9.87721674812179    3.91450415746828
H         3.90066116138777   10.10803755008399    4.33980780237109
N         4.06554488494367    8.13439168745971    2.85735783203540
H         4.02526755421394    7.32691917599694    2.25874538207979
H         4.95085033716438    8.39641708712350    3.25764264612631
C        -2.62156728442699    9.05267916389148    4.61370254213116
C        -1.91751378387742   10.25629649434982    1.35475466265206
C        -0.75297261128071   10.84346851835024    0.64571295773357
H        -1.01767381184728   11.81377176587819    0.22878780160353
H        -0.46131070022713   10.19497782826303   -0.17933607826504
H         0.08956879436754   10.95160043429492    1.32627518282287
C        -3.19233977470105   10.07734674172340    0.59100356862145
H        -3.48567377693011    9.02680670204921    0.56958812503373
H        -3.06825197809098   10.41525746288958   -0.43253143661451
H        -4.00218284532148   10.65164611828394    1.04363228310892
C         2.92572428054993    8.79954565250476    3.09355218932920
C         2.00214936057709   11.65561242806791    4.97826749343380
C         0.76933798900853   12.45167275614633    5.20251491930249
H         0.94810012534840   13.49743512448936    4.95825154033359
H         0.48514646474101   12.39858698480493    6.25263692980136
H        -0.04671649712078   12.06481619457467    4.59501941605129
C         3.25202122585681   12.07469329828838    5.68719864902206
H         3.05775501737452   12.94007608919339    6.31215305503938
H         3.62296025111931   11.27058625530935    6.32430881468766
H         4.03500205930380   12.33815954181633    4.97442079676946

