93
CSD_code = LUSZUW | q = 0 | S = 0 | Stoichiometry = C35H50FeN2O3Si2 | MND = 7
Fe        7.76457643198874    6.17605492218364    1.26592332489480
Si       11.43118110894053    5.28907330166924    2.13452452676080
Si        8.39035425849816    8.51912861960595   -1.50215510691063
O        10.59785210354982    6.34798624038436   -0.71669807416144
C         9.89702839916195    6.74262885574615    0.20477117347717
C         8.76753139330391    7.69527054616677    0.14919080401852
C         8.58881954266718    8.20520492355944    1.48111084464983
C         8.05772912643239    9.56070584495604    1.84393068192796
H         7.02135540427935    9.67998233281531    1.52389246323034
H         8.65108475067673   10.29657138908247    1.29081855760428
C         8.18473507840179    9.83449611638273    3.34298852804946
H         8.08664827733407   10.90717849313109    3.52570355482320
H         7.37437432679699    9.33500338905333    3.87580053208096
C         9.52157976381818    9.33339010736186    3.88402859529418
H         9.64553500115149    9.64564468004328    4.92375916449183
H        10.33148686206951    9.77692645466434    3.30059669377754
C         9.61027651786710    7.80778808424681    3.78773187052081
H        10.61001774253377    7.47282244864707    4.06829406978656
H         8.90929580598800    7.35658466974989    4.49265710083590
C         9.32886375714304    7.39099590666681    2.37314489318825
C         9.96366866375349    6.34732418645138    1.63066888730207
C         6.17071285453964    6.72312538127796    0.84827163074468
O         5.12412399685862    7.10086695061490    0.53099716048941
C         8.01035550597367    4.97027106091326   -0.03317631873897
O         8.20789060462005    4.36611238480636   -0.98632587174878
C         9.94332019021811    9.51748012660611   -1.99414853592729
H        10.80698286920014    8.86122575977503   -2.01638046526805
H        10.15414215271088   10.32059460327753   -1.29332618832926
H         9.83238385415236    9.95949209476013   -2.97959687737408
C         6.88590644783511    9.69508501938874   -1.41323658398077
H         6.58496507280942    9.98160376771985   -2.41538348237294
H         7.10337768987383   10.60685486810466   -0.86768671189270
H         6.03294051032098    9.21838620739446   -0.94263148666083
C         8.01403048462489    7.16692479126377   -2.78653714573243
H         8.81747979512039    6.43866368534600   -2.80227484556058
H         7.91175039741962    7.57695746057768   -3.78681788080660
H         7.09490482661169    6.64027871727398   -2.54477926528063
C        11.31209064023032    4.74077687349909    3.97216239375807
H        11.95060092465712    5.35548216474803    4.59827352352437
H        11.64279753855991    3.71483661613564    4.09111821945763
H        10.30459253030180    4.81008056497666    4.37021605680121
C        12.99734411071791    6.37206568104520    1.94983416780448
H        13.07775816417501    6.72843336689702    0.92779730008230
H        13.89830151532209    5.80999988341751    2.17914937188366
H        12.97526007023796    7.24171919182145    2.60158218363365
C        11.56098653758485    3.78356680928957    0.97839533852096
H        10.59499219790729    3.32078886245226    0.80624063858826
H        12.24049694000256    3.02716736261098    1.36090871740175
H        11.92846475799479    4.11174596608998    0.01233158041608
C         4.63879818774068    7.15929223058827    4.19290216537435
H         3.93878769114836    6.48729255067462    4.69489687883977
H         4.38402298234026    7.18042440271545    3.13229317171302
C         4.51425784171473    8.55645977576691    4.79226361567956
H         5.15316839928088    9.24781229245299    4.23989042937692
H         3.48529933141143    8.90536468642380    4.69036862735639
C         4.91684347550471    8.54981480899214    6.26415622305975
H         4.84450589343666    9.55919559716031    6.67241406246661
H         4.22770215212840    7.91367455525002    6.82485143975207
C         6.33987810700986    8.02565622821983    6.43300542821629
H         6.60027586574611    7.99147861757294    7.49273124016878
H         7.03970036824203    8.70440879662556    5.94329188096513
C         6.46954064098767    6.62832770966798    5.83377809772182
H         7.49449454108637    6.26390799279201    5.93660203109572
H         5.82016137356246    5.94840885844356    6.38926672209303
C         6.06659830676527    6.62846994331105    4.35617466612672
H         6.74627863775913    7.25798027722201    3.77220686395827
N         6.17543160465662    5.30277788054195    3.79130490314133
C         5.49972929268105    4.22182430812996    4.29440102807557
H         4.89490209038088    4.26604165156811    5.17537833695214
C         5.76161435504938    3.18251919221990    3.47462552603536
H         5.43890546348592    2.16190863610095    3.50555456034562
N         6.58609382186620    3.65647472635932    2.48956047919982
C         6.86202282885262    4.97089822117003    2.66978297242614
C         7.01787688657632    2.80715199232595    1.43557074372742
C         8.20239016120915    2.08928382518514    1.58777435528611
C         8.59610652239930    1.24039012958372    0.56591609340881
H         9.52385595948658    0.69513855765034    0.66167462598794
C         7.82432594949159    1.07999080193595   -0.57644083087591
C         6.62163674354900    1.76657205327348   -0.67469981628620
H         6.00682097755189    1.63460313799057   -1.55293479099899
C         6.19788237629831    2.63153404524184    0.32097093742508
C         9.00289273364139    2.24280672540664    2.84191304466938
H         8.44211441843836    1.86521467152066    3.69784530036934
H         9.22051389001980    3.29400701234029    3.01505020819073
H         9.93848828352531    1.69660332543776    2.77369359212555
C         8.28915410108142    0.19829977223831   -1.69295971741315
H         8.93024427444517   -0.59776935015413   -1.32209224287204
H         8.86330453017129    0.79079041950290   -2.40535339153060
H         7.44587543482993   -0.23945271032098   -2.22186114304040
C         4.90859486559379    3.38313354566043    0.20441940084340
H         4.24156386730112    3.14162281692776    1.03195182948694
H         4.40733257560115    3.14206574149623   -0.72841628800090
H         5.10426469914102    4.45455181218547    0.23241703027387

