64
CSD_code = LUTBIN | q = 0 | S = 0 | Stoichiometry = C21H39IP2Pd | MND = 4
Pd        6.46333151172051    3.31876085022861    7.46158380784257
I         4.38212185795075    4.45814618401803    6.44432702585437
P         7.93863559593067    4.95010252299619    6.70855608578489
P         8.16557091301683    2.52243031619829    8.70354184563425
C         5.33085746503783    1.75926812060480    7.96285671067109
C         4.61295163619826    1.65984814041026    9.14620664557612
H         4.63322962319306    2.46617471775506    9.87574942133543
C         3.83702536178300    0.54009751691609    9.40061888307222
H         3.28036021785136    0.47720603933389   10.32625340983542
C         3.75691580874743   -0.49747270202263    8.48163190359660
C         4.45730533288846   -0.38169655054318    7.28832167180292
H         4.38911067468706   -1.16885712698424    6.54915239691941
C         5.23347612371104    0.73622795210647    7.02889463608023
H         5.74786038826639    0.81280433701364    6.06819554069314
C         2.93914588549144   -1.72008478755238    8.77646021440307
H         2.08851722608857   -1.47283959011548    9.40783347759306
H         3.54528618582848   -2.46070512719548    9.30145049322088
H         2.57481950288461   -2.17300733696463    7.85708319651023
C         9.53366808591895    4.77454389178947    7.65434259705470
H        10.37998225207499    5.08038092622946    7.03141959328494
H         9.46440383492999    5.47341239220157    8.49382224364307
C         9.74334200060913    3.35659266935982    8.18247720852870
H        10.45301891852134    3.34739335029899    9.01567871313402
H        10.16747757127105    2.73043229634748    7.39102760421722
C         8.41023532788451    4.43960107100883    4.97124511310924
H         9.48105114067219    4.63105514987403    4.81351608363065
C         8.13248359650354    2.93655230388366    4.86761145295826
H         8.37682836303548    2.56587341848875    3.87222216856172
H         7.05929121910140    2.74817265621560    5.04681441311846
H         8.72073532314375    2.37241438920212    5.59493932651883
C         7.58643047637640    5.17248949912326    3.91432082997301
H         7.75701199645496    4.71796789801752    2.93907252631652
H         7.85441743472073    6.22364058704257    3.84414104609602
H         6.52289166190205    5.09567298745633    4.13888035650983
C         7.71256011601940    6.79192787689926    6.61366744868157
H         6.95095197858680    6.92761276852888    5.83519585480889
C         7.10733494280703    7.28298327736128    7.92749553976515
H         6.77681378258882    8.31491553876969    7.82804295284289
H         7.83181881340812    7.23988213742735    8.74033600665131
H         6.24024831880688    6.67486291966329    8.19200818557020
C         8.97051705320004    7.56905285152966    6.24264235105722
H         8.71355619720659    8.60984056809869    6.05196936242395
H         9.44035797609578    7.16612179217186    5.34776294330940
H         9.69647487879659    7.54759542832962    7.05313744928222
C         8.77309667327355    0.77515787593318    8.92938508891244
H         9.77452688995892    0.82494179126882    9.37858158600960
C         8.86639523267121    0.11769504360332    7.55313574901305
H         9.15126507100201   -0.92833900718334    7.65220882635004
H         9.60827558433071    0.60427913578408    6.92138200731570
H         7.89585063149566    0.16180421650079    7.05794419681620
C         7.84433108075644   -0.03779341627052    9.82688795669217
H         8.13926409714322   -1.08590649835387    9.80528839277181
H         6.81586988830091    0.03141972041220    9.47416779733339
H         7.88623940132998    0.29782920797580   10.86054227003440
C         7.80357943875359    3.11463582531052   10.43167976159631
H         7.09408257567821    2.36641973555410   10.81190717767798
C         7.06740512149226    4.45501801663245   10.37049878225457
H         6.63540859452040    4.69548088840492   11.34120346189579
H         6.24606938584432    4.41505809991194    9.63059772907468
H         7.74832396013657    5.26000073326942   10.09683981868187
C         9.00830797131498    3.17886714638974   11.36454377586170
H         8.67278037442122    3.37199483261551   12.38239497039096
H         9.68278195342388    3.98483755090546   11.08062931357935
H         9.56332150224977    2.24250497980460   11.36417460024448

