75
CSD_code = LUTBUZ | q = 0 | S = 0 | Stoichiometry = C27H44P2PdS | MND = 4
Pd        2.62125591080475    2.51178244009506   10.32033785687177
S         3.41016938686513    4.63218064258531    9.69429811726760
P         1.83680916965365    0.41455631663742   10.71962424885778
P         4.36343935787846    2.02553098002035   11.80212085933200
C         2.01623919454257    5.50439997669343   10.25760460866115
C         1.55913798577409    6.63428852575393    9.58345581167513
H         2.08027459888425    6.96229180723272    8.69619017999044
C         0.44319207742779    7.30608804835500   10.03952726951500
H         0.08783992343283    8.17448148838416    9.50249897984960
C        -0.22782810237148    6.87317202250152   11.17279624605206
H        -1.10388109706633    7.40047931563189   11.52141987736225
C         0.23297026409903    5.76060729977793   11.85850868004713
H        -0.28040448170491    5.42180528700145   12.74892364672455
C         1.34753208271544    5.08272168624841   11.40788995793589
H         1.74251416350512    4.21705251431477   11.95427052937287
C         1.24684664159023    2.86262980519947    8.92640911920479
C         1.57546597298569    2.93127419814134    7.57923103174585
H         2.59481149275726    2.73868311448139    7.24953002634018
C         0.62188086358895    3.28777416267451    6.63850823105352
H         0.89877856269630    3.34219921056641    5.59401350994986
C        -0.67676964553686    3.59242460402498    7.02044859613272
C        -1.00236048027989    3.52555956107444    8.36860459293473
H        -2.00849063914911    3.76593633792154    8.68625363133321
C        -0.05551670737365    3.15826358625187    9.31075506729394
H        -0.34644724462645    3.11752512535820   10.35870147237955
C        -1.70377577207135    4.01310902176979    6.01044070464311
H        -2.67341795169440    3.57390860516074    6.23897061983463
H        -1.40884845822953    3.71347257651132    5.00729752688923
H        -1.81673185772612    5.09783554318033    6.02246391387114
C         3.19396840466549   -0.55151963547543   11.54614779551817
H         2.76194888290525   -1.38800167553840   12.10334194508367
H         3.79164028696965   -0.97839930716516   10.73665153373832
C         4.08692063310190    0.29778930596191   12.44926556007388
H         5.04990060796594   -0.19856047926542   12.60286046592270
H         3.61056509271860    0.41480654248632   13.42662089108831
C         1.37319113635925   -0.76673380221552    9.35571466850660
H         1.39112176456568   -1.78910183701959    9.75639148241106
C         2.41977225846565   -0.62799560478319    8.24987855421754
H         2.07129463157841   -1.10285820730297    7.33477230175688
H         3.36281759971478   -1.09548568825006    8.52647950844626
H         2.59527013099166    0.43111005616794    8.04264511835558
C        -0.01404453071328   -0.45313354916984    8.80270094037901
H        -0.20836084329223   -1.06568455540767    7.92357976308830
H        -0.07396497026327    0.59382527750805    8.50854027023107
H        -0.79445545445693   -0.65920805267097    9.53145621845697
C         0.39546996063815    0.35602211412783   11.89572203199911
H        -0.44596298827501    0.70839449361257   11.28450769308532
C         0.63143694269728    1.38461312387291   12.99904944818624
H        -0.28939747727003    1.59010410088890   13.54246433298301
H         0.99055521702261    2.31941942382489   12.55368671889581
H         1.37370190312747    1.02857112875265   13.71127103808742
C         0.05635398025344   -1.01661409331582   12.46565278747588
H        -0.88895800928843   -0.96406579643358   13.00384557681807
H         0.81720729556032   -1.35022933780143   13.16855767581889
H        -0.04318823079028   -1.76234395600502   11.67998437429306
C         5.87972415433641    1.82601149177319   10.73100249505285
H         6.54764070076724    1.07408009341014   11.17435775234920
C         5.40534909113246    1.34533658432471    9.35789491713805
H         6.23957661118078    1.30613312736686    8.65835144867946
H         4.65528873158130    2.05162247487391    8.96058474357100
H         4.96664970855287    0.35040129527588    9.41986607515988
C         6.61241874131004    3.15628321834425   10.57577538472375
H         7.37956034009714    3.06761206864939    9.80788850662507
H         7.09677998903017    3.46580407733880   11.49868805701384
H         5.90999139418889    3.93032426920901   10.26584749477271
C         5.01110105866513    2.89680340826096   13.31881034142709
H         5.39279604401796    3.84987020245333   12.93117653940772
C         3.85220107951318    3.21780301526645   14.26029533840683
H         4.19033521754876    3.86509907551768   15.06768870738183
H         3.43851168045297    2.31433361849937   14.70610072760748
H         3.05978066077016    3.73582747776622   13.72093747225214
C         6.12902438150956    2.16142225531628   14.04979078168846
H         6.53183409324486    2.79893957527647   14.83567194758600
H         6.94269401626374    1.90036239957556   13.37768699914583
H         5.75825286950403    1.25127647856652   14.51630066197687

