105
CSD_code = LUTDUA | q = 1 | S = 0 | Stoichiometry = C36H66AgP2(1+) | MND = 2
Ag       -1.54386552100476    8.80595760110778    3.61782944794922
P         0.37938897563907    9.05745189966228    5.09937589339962
P        -3.43173041656132    8.28453170704327    2.16113117371341
C         1.01622448769758   10.79524779759024    5.30176784367992
C         1.52915034569154   11.17111893823300    6.69200637219747
C         2.09337894779213   12.59120210522500    6.65840149959124
C         1.02446040192626   13.58298268119861    6.20949932319149
C         0.48760459346685   13.20442732075500    4.83200931331412
C        -0.06498100596057   11.78247056939528    4.85000872510951
C        -0.10975476742356    8.43064402877815    6.77630331236066
C        -0.34148200419611    6.92044215242229    6.68729490526884
C        -0.94321342926842    6.36852198815627    7.97663810178993
C        -2.24743387113184    7.07870416594076    8.31832669984490
C        -1.99818502076921    8.57586938517773    8.45473699182034
C        -1.41239951112242    9.13735068497921    7.16389616615818
C         1.85742649295392    8.06525744249032    4.57674703351357
C         3.10825497213744    8.22923331907921    5.43644784094829
C         4.20727121426266    7.30092113517702    4.92020259593785
C         4.52014813910900    7.59963289810619    3.45678824441694
C         3.26689364489340    7.45357788395970    2.59781831554121
C         2.16593394458096    8.37748476113115    3.11016831037521
C        -4.58090972688052    7.01315739613262    2.87235379880836
C        -4.98765983314419    7.45268081795068    4.28127526980906
C        -5.79479567590851    6.35136780684266    4.96232834785318
C        -7.02474596276809    6.00534474117531    4.12730937427241
C        -6.61704054816911    5.57956771558324    2.71977878160123
C        -5.81398956240044    6.68474940011606    2.03443177679604
C        -2.74968394118237    7.56197190622200    0.59376714491761
C        -2.09944716684853    6.21461931379183    0.91620816953510
C        -1.33984965722021    5.65734799237753   -0.28442197981489
C        -0.28496276092979    6.64432464287208   -0.76944517427973
C        -0.94666443197356    7.96751246738975   -1.13493438301489
C        -1.69397901331036    8.53807359031883    0.06532043089856
C        -4.52921166194328    9.71587840920856    1.69984922977272
C        -5.10208096200561    9.69980420078759    0.28251752177032
C        -6.04860048323346   10.88652116905495    0.10412689604161
C        -5.31537454164226   12.20035548558163    0.35697159704706
C        -4.71689744015084   12.21823435006244    1.76077193933533
C        -3.78138182645541   11.02862429545035    1.95470151192104
H         1.85147561359424   10.87290443318590    4.59191362859384
H         0.71450981458730   11.13728576654676    7.41711835077983
H         2.30410868822286   10.47657033549221    7.01989688397568
H         2.45687583638731   12.86069192103126    7.65099572347424
H         2.94094609264950   12.63294099331770    5.97054414891870
H         1.44328804266889   14.58916801604890    6.17776593213345
H         0.20472742623844   13.58589104081377    6.93142254753363
H         1.29321190133603   13.27077772189597    4.09726712739256
H        -0.29633983834919   13.90149325118669    4.53188035075772
H        -0.41894612793234   11.50643559294128    3.84528888787115
H        -0.91915975145124   11.73544069471935    5.53108382198362
H         0.66998949646471    8.64735650485962    7.51379608484304
H        -1.02541870128712    6.71764332915000    5.84762361827194
H         0.59897623503946    6.40392188498914    6.48899912805423
H        -1.11598953717392    5.29688310417477    7.86587422490039
H        -0.23129185491962    6.50827070655753    8.79281711120681
H        -2.65407521651312    6.68184436749526    9.24871200582646
H        -2.98128841487729    6.89943927838500    7.52812932569147
H        -1.30122809193990    8.75472943715851    9.27617769993523
H        -2.92963631815090    9.09400511514789    8.68859188036380
H        -1.24526061457371   10.20995360567051    7.27667334870275
H        -2.14229736190434    8.99949659337856    6.34699542510327
H         1.52891303196546    7.01774879020607    4.62509084626442
H         2.88720621956012    7.99342505438698    6.47996808873034
H         3.46487463729667    9.25953337832902    5.38386903151741
H         5.10580685846896    7.42866169554613    5.52536673012093
H         3.88359454176879    6.26222235624823    5.01869519264189
H         4.90479291325826    8.61796159099728    3.36777671100031
H         5.29348372834169    6.91963147923287    3.09841387750058
H         2.91955374256647    6.41837765040545    2.63452486228926
H         3.49725480649702    7.69325740716829    1.55842017743734
H         1.25389715009550    8.25105885057941    2.50826541855318
H         2.49312315546338    9.41470049992189    3.00530918720227
H        -3.97157478490207    6.10475088658177    2.97716005755661
H        -4.08607562186701    7.68046980734073    4.86904536164947
H        -5.59257152833536    8.36137383421756    4.23368797593728
H        -5.17139777474956    5.46153118483231    5.07727845399937
H        -6.09984557977048    6.67792239303963    5.95791952809188
H        -7.68034623251473    6.87685106381333    4.06793772088764
H        -7.58261273205664    5.20184984572618    4.60902778157096
H        -7.50539878477543    5.35456973274918    2.12808551600850
H        -6.01369176670681    4.67056404095045    2.77470673316615
H        -5.51936289547570    6.35961110272616    1.03399627405930
H        -6.44590077373950    7.56946104729268    1.93752801299666
H        -3.54307618909738    7.42698027800891   -0.14862066375230
H        -1.40286968300580    6.35209493342743    1.75894934101607
H        -2.85750581244864    5.49080901532029    1.21957182656489
H        -2.04573839097659    5.45674813627016   -1.09311713050988
H        -0.87157312321179    4.71100655319676   -0.00932247331888
H         0.23578753171342    6.23580437037310   -1.63570451610805
H         0.45403120366715    6.80919147491361    0.01910038017954
H        -1.64889215965363    7.80801425329570   -1.95587369072103
H        -0.19629774428813    8.68440702835830   -1.47222028689687
H        -2.15665408905470    9.48687918204435   -0.21176950692313
H        -0.97187145928431    8.74492979493166    0.87459369064900
H        -5.36497582918681    9.66891994261685    2.41188379280723
H        -5.64038390440305    8.77004306693778    0.09242944128935
H        -4.29822263239026    9.78227678599018   -0.45069639188265
H        -6.45566548830600   10.87697433628269   -0.90791416485432
H        -6.88531117691322   10.79625886849356    0.80058244742449
H        -4.51813933811828   12.31963310555718   -0.38013319298861
H        -6.00459489142048   13.03707336541684    0.23976783223678
H        -5.52072201005124   12.17111236865996    2.49895301117079
H        -4.16979102070411   13.14844011683094    1.92178241612121
H        -3.38049779345140   11.03128112656570    2.97929626614237
H        -2.93785104447837   11.11637834353512    1.26461241345981

