137
CSD_code = LUTDOU | q = 1 | S = 0 | Stoichiometry = C72H60AgP4(1+) | MND = 4
Ag        5.39861537185262    5.86158045508147   10.30839635305169
P         6.41092975967345    7.33516977236960    8.40273183604106
P         7.27560012586144    4.36914002803391   11.29056959817146
P         4.42248615949242    7.36957020359820   12.20422953197947
P         3.51978328818313    4.33252471685101    9.34092560908621
C         2.81805304519882    3.08327714025685   10.47161439503252
C         1.47374968122276    3.03054815089157   10.82191914725821
C         1.03478519209056    2.06952144965707   11.71672773121995
C         1.92714659183711    1.16359683953470   12.26569600022893
C         3.26868659588670    1.21572049870999   11.92033983220123
C         3.71295326464671    2.17463427973692   11.03197248878826
C         2.02906727525150    5.20850588538084    8.75720862912675
C         1.36078365750689    4.88685894374171    7.58111095536268
C         0.25371582536591    5.62372662438650    7.19712428535555
C        -0.18896337478362    6.68208888667943    7.97401679073171
C         0.47859165132101    7.01000033896126    9.14361853970516
C         1.58408976106102    6.27820289693198    9.52986375502431
C         3.94620744729436    3.28733852560966    7.90845998585010
C         3.31504313169636    2.07335933366285    7.65078688896965
C         3.68378467008352    1.32880885096690    6.54504749039497
C         4.67870286830359    1.78402884332533    5.69350569068000
C         5.31114712985551    2.99021906979527    5.94763295111919
C         4.94612707014070    3.73651677498040    7.05218802828855
C         6.74642009329727    3.15381705814846   12.54265216907618
C         5.76575266580832    3.56534973872486   13.44008805909028
C         5.30849053632060    2.70848165996967   14.42161490371086
C         5.82636198850724    1.42595489886581   14.50918685356199
C         6.79644872318703    1.00685440027018   13.61264403016212
C         7.25822819136153    1.86341620057257   12.62846730360341
C         8.21431825824220    3.32299044321123   10.12893257363690
C         7.48173548106504    2.67563102239231    9.13815313213973
C         8.11277435634348    1.86000170100072    8.21979330064285
C         9.48681166135583    1.68987252529747    8.28145520502939
C        10.22284923657660    2.34097625659859    9.25850870541574
C         9.59419658334511    3.15895552795953   10.18123130252740
C         8.60457334244988    5.25742343127899   12.16679323298633
C         9.23147748929732    4.76528656852388   13.30692786315817
C        10.24076271620239    5.49898505779848   13.90503690428931
C        10.62773146960441    6.72050870157538   13.37650313337213
C         9.99859860248172    7.21835701997703   12.24664808761076
C         8.98915643500480    6.48995907218440   11.64826497526452
C         7.60255191632102    8.63197790436601    8.87808356382034
C         7.43439129118918    9.23689782901864   10.11968449945314
C         8.30421791990011   10.22414079097854   10.54220833197309
C         9.35263635169719   10.61312470692988    9.72419936716643
C         9.52563635540151   10.01423003550504    8.48604048534144
C         8.65716297498720    9.02573492650041    8.05933824778189
C         5.20125501571519    8.26977039979012    7.40606855506580
C         4.01168013675190    7.62066663678976    7.08480150843927
C         3.03375720524538    8.26946644057716    6.35715898336873
C         3.23439946373219    9.57928767902103    5.95030446219551
C         4.41272405312765   10.23265728337108    6.27345454908436
C         5.39643039303791    9.58558202574931    7.00117424278029
C         7.36137144913988    6.44357141346528    7.12540951741836
C         8.44186607763895    5.68254209846577    7.56659310083159
C         9.19145734168797    4.94996677138744    6.66798588866495
C         8.86064117584724    4.96184034522883    5.32167309386512
C         7.78311743210023    5.71141546198160    4.87943533940363
C         7.03050178909921    6.45180080442137    5.77514251837984
C         3.50981698473386    6.55576595831390   13.55868916929820
C         3.48902887939797    7.04982520852526   14.86001909782470
C         2.77142986677030    6.38304366346302   15.83668399287169
C         2.07477985795642    5.22516401938385   15.52754369551787
C         2.09505111221935    4.72836742995105   14.23436589698024
C         2.81101659769184    5.39159153704187   13.25593738119451
C         5.62322607520197    8.36640292976039   13.14949198714720
C         5.60186106538532    9.75596875520101   13.18796525697885
C         6.57524940575524   10.43839478360463   13.89760349635481
C         7.57074062093099    9.74457989197519   14.56540544744746
C         7.59652118949363    8.35907914852615   14.52570029893280
C         6.63114224417819    7.67308612354635   13.81600164569697
C         3.22795580114323    8.63154076264321   11.64424389810402
C         3.44005650673086    9.19125894546477   10.38739127643886
C         2.57212931069403   10.14160395135630    9.88645429078519
C         1.47700558984697   10.53596786380337   10.63872213854290
C         1.25625257807623    9.97716673321041   11.88756483659816
C         2.12468609085921    9.02584251575254   12.39360970009882
H         0.77221572626705    3.73632574752041   10.39941770539465
H        -0.01141001785522    2.02748354478617   11.98217328910586
H         1.57804193426792    0.41626647929214   12.96200921340436
H         3.96866529394053    0.51232684555198   12.34547764810062
H         4.76151023300936    2.22326852408684   10.76483238845845
H         1.70436041397492    4.06843960641041    6.96474711167480
H        -0.26453623513057    5.36924557840168    6.28442311654733
H        -1.05163333807421    7.25322951772563    7.66633182607189
H         0.14391309537204    7.83764078375333    9.75101988455869
H         2.11467848688885    6.53659914543036   10.43884975152021
H         2.54083001335784    1.71337339780609    8.31393348364821
H         3.19171490467362    0.38849547264533    6.34643543155280
H         4.96206926553296    1.19544217902252    4.83407487194470
H         6.09226492728367    3.34962113717539    5.29423836716354
H         5.45035090740431    4.67224490077778    7.26385320552570
H         5.35548756177219    4.56476611878102   13.35720815816518
H         4.54616429534589    3.04006800492031   15.11098869349838
H         5.47102393763802    0.75104487688442   15.27307506395410
H         7.19765397689795    0.00635266490636   13.67945166937495
H         8.01218324992210    1.52950286031301   11.92936226115068
H         6.40939066869244    2.82084635494428    9.08878936656703
H         7.53318666473448    1.36250573827994    7.45633506372016
H         9.98499509747420    1.05322063535537    7.56608715780578
H        11.29407795550159    2.21097902607374    9.30428229530790
H        10.17471010228880    3.66740335829862   10.93819684767282
H         8.93108068923634    3.81443415553878   13.72449009604158
H        10.72855365968260    5.11350868926617   14.78810911177323
H        11.41706501940071    7.28575720476703   13.84846884239687
H        10.28770494692011    8.17367584946079   11.83422575833364
H         8.48392904464556    6.88002780697332   10.77264263749805
H         6.62125695110169    8.92009480391895   10.76251857370431
H         8.16461149371246   10.68083566126867   11.51085989545697
H        10.03730471128382   11.38112468789626   10.05099083362346
H        10.34242488411950   10.31868964211134    7.84886645348210
H         8.79814932703360    8.55976433272939    7.09420270076480
H         3.85543114498658    6.59999681917572    7.41447056259144
H         2.11549066413404    7.75559231316173    6.11512687020311
H         2.47140719396898   10.09170235848541    5.38423999243152
H         4.56805305642757   11.25392327273569    5.95871190543612
H         6.30935857389592   10.10461318472629    7.25583721261428
H         8.69322341865291    5.67197224206256    8.62033288366563
H        10.03076992257859    4.36796383940784    7.01750043184983
H         9.44389578338100    4.38762010616827    4.61788551548300
H         7.52665780231001    5.72412374772917    3.83027082215161
H         6.18870644086310    7.03194153501246    5.42374479137841
H         4.03420565809510    7.94982904580490   15.10801867047299
H         2.75602977042889    6.76944933932550   16.84482419770609
H         1.51955582431416    4.70957057260279   16.29644594649465
H         1.56158134889831    3.82299434622017   13.98525893774101
H         2.84212931462045    4.99678954324073   12.24726920804248
H         4.82933517701504   10.30363624613313   12.66625906558308
H         6.55158910785831   11.51781938042390   13.93105014936940
H         8.32605834277445   10.28256785866853   15.11785230267784
H         8.36981012853734    7.81367904702481   15.04514284143327
H         6.65080936015575    6.59083903664430   13.77871682984043
H         4.29121615210993    8.87017293162943    9.79783894322636
H         2.74801593620116   10.56626058768495    8.90936853494600
H         0.79301350978593   11.27540344815881   10.25062612447327
H         0.40084585456595   10.28217743692761   12.47184046053224
H         1.94149852594010    8.58967285921053   13.36516001389572

