88
CSD_code = LUTFAJ | q = 0 | S = 0 | Stoichiometry = C26H52FeNO3PSi4 | MND = 5
Fe        2.79400434346521    1.08456174069929    4.43637423426074
P         2.44856217913194    2.99618586261544    3.63619818850133
Si        3.96395321124569    3.24079728699732    0.94418222190641
Si        0.84430427808553    2.52722577843793    0.99171897688068
Si        3.14023337922217    5.59242784218497    5.11818578701429
Si        0.31852516426473    4.14197560915805    5.65236419289213
O         4.01103181773331    0.34708737856534    3.08671046511397
O         2.23515766541193    1.20295361907609    7.26767605932669
O         0.62031515563966   -0.84495820828607    4.62616496094534
N         4.49864866881384    0.05236654723031    4.30561798070111
C         2.44680187911851    1.27338236130476    6.13034988410741
C         1.49878975248063   -0.11196149572989    4.46577812778072
C         2.27281925263073    3.51730630675408    1.85770796808557
C         1.94208056584190    5.01614297416967    1.91768681965975
C         1.07781435860988    5.27367173528973    3.14311693671444
C         1.69995228658900    4.54703603295956    4.34391739764038
C         5.44367866115135    3.57116878969040    2.11880028721238
C         4.11867428799034    4.53721542683646   -0.45624672034647
C         4.21481813606508    1.51321806123764    0.18842131828871
C         0.88531198482577    2.91230942151775   -0.88441809815640
C        -0.93288550888937    3.04244034380107    1.48753595901531
C         1.00931055026396    0.65245250600334    1.26226667293636
C         2.43013961657647    6.94797176668305    6.26373903648787
C         4.20832604971669    6.61591688704502    3.89888091849257
C         4.32855302513777    4.45938088861676    6.09868937261630
C        -0.95660841865396    5.56997630955354    5.61051999482513
C        -0.62556677305424    2.54530761683595    5.19969058363740
C         0.93169990676439    4.01446360121399    7.45772151524693
C         4.52264278859113   -1.40188763819376    4.58271757471511
C         5.70662997299819   -2.07483709608447    3.89043737577845
C         6.86134509762762   -1.35859564909659    4.59562142042337
C         6.95065076011137    0.01164354545315    3.91853802442536
C         5.78510984267360    0.71773662745833    4.61014837643886
C         4.89887294147333   -1.63039932168413    6.04099664771701
C         6.14683289470809    0.46601327549453    6.06883119770319
C         6.32005228317063   -1.05624347648874    6.03461650388646
H         2.85705992566274    5.59888253168905    2.00323570623832
H         1.43031187193911    5.33820286358770    1.00900594691718
H         0.07812768030179    4.88775035590000    2.95431659764308
H         0.98874237712389    6.34422811002913    3.33801301697660
H         6.00019962162541    4.46053510668312    1.83746069858581
H         6.13723301807235    2.73675866916909    2.09510047534908
H         5.10991629000870    3.69494828937982    3.14657305427172
H         3.29065136858850    4.48798622873913   -1.15242848949460
H         5.02914142614284    4.36371486763312   -1.02065058847378
H         4.16412076383283    5.55122059617566   -0.07338779380743
H         4.22808190579085    0.76018025181001    0.96756984752521
H         5.16591979854208    1.47271931534430   -0.33480527683153
H         3.43784580770954    1.24731366152136   -0.51787058526569
H         0.04402698003680    2.43037867048983   -1.37228966601485
H         1.78826321875714    2.55852016186895   -1.36729734477519
H         0.80147799345368    3.97638094363397   -1.08063712202162
H        -1.63978511895391    2.40228363419395    0.96666902211161
H        -1.15768680898280    4.06504357174447    1.19973181153769
H        -1.12479955679948    2.93775590016559    2.54849722057510
H         0.95652980541909    0.11253115773794    0.32270933448994
H         0.21270192213236    0.27803486219452    1.89679025387323
H         1.95099842485671    0.40067371914709    1.73958914492453
H         3.23908262777221    7.54019518711149    6.67967276037970
H         1.85998127352778    6.54430106631257    7.08992686923141
H         1.78453319139014    7.62749778524038    5.71685622495848
H         4.73911891017283    6.01406596217363    3.17118264731588
H         4.95284142316830    7.16865606766425    4.46581815874928
H         3.61098485554817    7.34617293843906    3.36183248643884
H         3.96852831191142    3.43242208958414    6.12113923805212
H         4.43844137601213    4.79896397667265    7.12323459944782
H         5.32069406514608    4.44790013439400    5.65752371330023
H        -1.70337354305503    5.41898581384284    6.38353991894855
H        -1.48033738616258    5.62806582151334    4.66250523277128
H        -0.49319958885355    6.53333555407945    5.78943764787363
H        -0.68563808419158    1.87816069916387    6.05314984910137
H        -0.11784861024762    1.99798360082773    4.40827124552494
H        -1.64308756888692    2.75014054783391    4.88074618822429
H         0.56901587432214    3.10076575010389    7.91569530562677
H         0.55738345878200    4.84053128476872    8.05394233067161
H         2.01120309919846    4.00783806486663    7.53985999269753
H         3.55067492388635   -1.80311455613482    4.28731386467031
H         5.71091719940151   -1.92253786085867    2.81254699280646
H         5.69035619128431   -3.14652568177373    4.09044111489211
H         7.79700637707288   -1.91611502869883    4.58273200771749
H         7.88302965594759    0.53224807312514    4.14049799724068
H         6.83185110185455   -0.04507839682847    2.83769300924875
H         5.68128023569086    1.77013083362111    4.33793659558632
H         4.88047545362948   -2.69618965478589    6.26747192297670
H         4.23893838480454   -1.11568030410259    6.73773847702325
H         5.37065652759292    0.78408080905028    6.76379264969320
H         7.07169205632913    0.98628562443986    6.31827722506364
H         6.95073743386025   -1.44238292802204    6.83397030667778

