86
CSD_code = LUTGOY | q = 0 | S = 0 | Stoichiometry = C28H47Cl2N4O3PPd | MND = 4
C        16.71549176352642   15.13434111828000   14.06832259053675
C        17.45284123343935   16.30596357952107   13.99410191307310
H        16.99056618050103   17.18243535904772   13.56474577842902
C        18.75800313271403   16.33031093546123   14.45294901962467
H        19.33598263464491   17.24016808894459   14.39273036321656
C        19.32233421402562   15.18264875609029   14.98721312833514
H        20.34099129230010   15.19931730506616   15.34482911232733
C        18.58548284704816   14.01125456319894   15.05932815399273
H        19.03048336264634   13.11779626589083   15.47223962932612
C        17.28032582300198   13.98524621498161   14.59890516785609
H        16.69387239933825   13.07922355545685   14.63849838122445
C        14.40440223266645   15.67731614664838   16.03587630646532
H        14.27300356842832   16.67832077202002   16.45560481211883
H        15.44008645026721   15.35880263504551   16.19397964972375
C        13.43335394639475   14.68581786202025   16.69019736040347
H        12.41433659594908   14.90542048218279   16.32426637555651
C        13.39791796414545   14.76298855852107   18.24124389834514
C        14.80385977722034   14.84065093872017   18.84497849280318
H        15.28451390364415   15.78833784608664   18.61438333264266
H        14.73864843570016   14.74983469809243   19.92666641005429
H        15.43799924543218   14.03448384463301   18.48055765388264
C        12.58848843836146   15.99592022620035   18.65205379587040
H        11.56203107730306   15.89827939838451   18.30643190299809
H        12.57484196167501   16.08668826959443   19.73535544655222
H        13.01087020071434   16.91123564980205   18.24408307038894
C        12.68015776955106   13.51908225364931   18.77601310264871
H        11.77944777736178   13.30918901264846   18.19950259302948
H        13.31941007585483   12.64062805950765   18.73080436745672
H        12.39534875256714   13.67018853572597   19.81375590551306
C        12.88700960283868   12.66419667782053   15.44953758255846
C        12.34146519991225   10.48947571184359   14.46006692395011
H        12.73042702711855   10.34686592174324   13.44241512037668
H        11.30928591652599   10.87164481915219   14.42510302879809
C        12.46786808737499    9.19444094450302   15.25124402085927
H        12.14550836903259    8.32240037626023   14.68764270187823
H        11.87598459933649    9.27504434093926   16.16291243965050
C        13.96021186004410    9.18052066038618   15.57384471770294
H        14.52675814664500    8.83585801645071   14.70707346363633
H        14.20481901285039    8.54337628632092   16.42112753793722
C        14.26599714085830   10.65388296772320   15.86118977605629
H        14.22383688905737   10.84475419226136   16.93932558862601
H        15.25262682007285   10.94718555938717   15.48463366307486
C        11.68096229567379   14.77774042556041   13.53110094060174
C        10.76575054056273   16.54061124128695   14.96541233829289
H        11.54387585566303   16.89597998787299   15.65456719245505
H        10.16069013055712   15.75450011686947   15.44237883065082
C         9.93460431534433   17.71857144568025   14.47385502247160
H         9.02476785979542   17.34847133864609   14.00169266479821
H         9.66919482537654   18.40780268004356   15.27228907736873
C        10.86685937662558   18.33560064491601   13.43361112194428
H        10.34676947327018   18.97550667434645   12.72384968904438
H        11.64103507403276   18.92366265127224   13.92861492341926
C        11.48408111803149   17.11143093224245   12.75524217455225
H        10.90558542628987   16.83267525487044   11.86712335833226
H        12.52743038167602   17.27663830125831   12.47107301236517
C        12.64451296817361   13.14337871602355   12.00446283001551
H        12.29321357235035   12.49305651298745   12.82050418759049
C        11.99297999012811   12.63767818083632   10.69311576079415
C        12.63288697428843   11.31985648069387   10.24899441369598
H        12.65517657444481   10.60358210726186   11.06690642375355
H        12.04801179966075   10.88651610550197    9.44118984303016
H        13.64639938917583   11.47424423782653    9.88693146403106
C        12.12213450477706   13.66549916002667    9.56538029715236
H        11.51110699703817   14.54110821224898    9.76708521271674
H        13.15512803304849   13.97825758937763    9.43009805126949
H        11.77598463890451   13.22786173998166    8.63202148391095
C        10.51201248535517   12.39852211625993   11.00421939377988
H        10.39721093099778   11.58688233318127   11.72223343008222
H        10.05832443134820   13.28674163435064   11.43918012295847
H         9.96594764210104   12.13843361614426   10.10110903042223
C        14.17998924808605   13.14738588258556   12.03849702746424
H        14.58687106446320   12.13999586203629   11.93516713375211
H        14.57769482874956   13.79266813820789   11.24981528534286
N        13.72777294133163   13.35872633499163   16.21407394813628
H        14.57457272585811   12.94199361651431   16.58275361765174
N        13.20586137921518   11.40508241153437   15.19144647994665
N        12.18880544995855   14.46672393797743   12.33947714734533
H        12.47404915625344   15.19415568045122   11.69537927640980
N        11.38479332726109   16.04377710168333   13.74747128648973
O        14.14300116164067   15.80149792216888   14.64716873160088
O        14.77619106858911   15.96163252246799   12.22620799740869
O        14.62156029275494   13.62638407313679   13.30235936347937
P        15.01011216131233   15.18987506137369   13.44591793040789
Cl        9.00911563137787   13.87973906135528   14.05578910223316
Cl       10.28454561207075   12.03110586126828   16.53372890798849
Pd       11.10793461831351   13.38380868845300   14.84867019338086

