92
CSD_code = LUTJEQ | q = 0 | S = 0 | Stoichiometry = C25H57N7O2Zr | MND = 7
Zr        2.97440259462872    2.56445763379141   12.20649437612376
O         0.93328356554756    2.38636713413139   12.61005237033581
O         5.05561476550356    2.60924051077908   11.91385585148959
N         3.29570066485921    0.13255914998107   12.44116282952839
N         6.40487531918955    2.05054913086287   10.15832153587477
N         1.40812276008453    1.48834831198161   10.66451441899666
N         3.98115468233586    1.99778379272401   10.12558119391313
N        -0.84377447006297    2.11593317921952   11.13529777959215
N         3.35259870079389    2.50184182980676   14.24950055227458
C         3.66256365393708    1.72465992886025    8.74976050475610
H         3.73665795900644    0.64458581908904    8.52572872966224
H         4.32707290580937    2.26346221382739    8.05490390561748
C         2.21162440132939    2.14980058676697    8.42901968002060
N         2.70370529730437    4.59762877956324   11.90480738683801
C         5.13290529906887    2.21013482196663   10.68987167070645
C         1.19343714185768    1.32239082015263    9.24935485775965
H         0.18961486391001    1.64748743305105    8.94384571698201
H         1.30684167990875    0.26001469133696    8.98306178153054
C         0.51646290251940    1.99846804604603   11.46055417096849
C         6.68906142333666    1.17505014411638    9.03313283486956
H         5.74506919741681    0.71421363216431    8.74982849812972
C         7.55365155374175    2.65306398595967   10.83670356267038
H         8.40757341434857    2.50272877415488   10.16886700166219
C         1.95490938890706    1.89124370155822    6.94032490097435
H         0.93459105881328    2.16172487715021    6.67722446526812
H         2.10227405004313    0.84056056421720    6.69600733844066
H         2.63258804716105    2.48262942722931    6.32798588632091
C        -1.55308878466124    0.90008059457810   10.76761462341242
H        -0.78021414367043    0.19413331338176   10.44558173200116
C         7.23089611059892    1.95103806992269    7.82631630040127
H         6.58091648059524    2.79245898173631    7.59869192905330
H         7.27577797485586    1.29974510678822    6.95683920407247
H         8.23018493675283    2.33384268332157    8.01766441089862
C         2.21801261998275   -0.53750335216195   13.15670214718947
H         2.30311180795872   -1.63643469562096   13.10142736798791
H         1.25791577936029   -0.23528882381309   12.73774793901209
H         2.25602369451461   -0.23748967327301   14.20545135018601
C         2.01932335628661    3.63443171010061    8.73849678962105
H         2.75438304873352    4.23034244760805    8.19913281142695
H         2.13318114400702    3.80848089495581    9.81575753340720
H         1.02541966096245    3.95381759487016    8.42892274126264
C         4.59439771240386   -0.26756318112525   12.96785660098559
H         4.69515752205133    0.14184170417967   13.97601618914800
H         5.38911253415081    0.14622688601884   12.34901629800504
H         4.70668453051772   -1.36429964522216   13.00928134967876
C        -1.58683104861946    3.26786771006546   11.63600274859383
H        -2.59411466500213    3.18526276230875   11.21232806449461
C         2.31592033857033    2.42063274130625   15.25559496337687
H         2.64682146582683    1.80513324555852   16.11945630902892
H         1.41080903097076    1.97479373080206   14.83896366932551
H         2.05024395499245    3.41574775575692   15.66994242974443
C         7.87874567375230    1.99326680825692   12.18086777638649
H         7.04189102216208    2.11809291187712   12.86129523706175
H         8.76120804525763    2.46226035986900   12.61027790488702
H         8.07889383590058    0.93192499718107   12.05599515819809
C        -0.92664274886528    4.53000459409455   11.07520801930014
H         0.11613705387196    4.57304404844620   11.38887411267129
H        -1.44525890854343    5.41752070509596   11.42984357164554
H        -0.96218065357169    4.51704335220968    9.98788967045180
C         4.49981132998936    3.16612913088692   14.82929700980274
H         4.24853365473444    4.16550176938224   15.24297156751065
H         5.28228257776701    3.29016781021441   14.07987434683212
H         4.91581561339227    2.57918945764218   15.67549705278276
C        -2.51986316674612    1.11847275133510    9.59883592558342
H        -3.39990308332422    1.67388391058067    9.91259065306128
H        -2.84731624260358    0.15612860288848    9.21326263038424
H        -2.03409936464919    1.66736918728480    8.79621667250083
C         7.63651148076318    0.02596473132830    9.40221895212808
H         8.63550174522134    0.38359075838672    9.63578498842920
H         7.71078857602069   -0.65928956067286    8.56076226872198
H         7.25067524994032   -0.52175457524008   10.25884692889136
C         7.36355799831156    4.15967937913632   11.00871031163914
H         7.11533434719061    4.62006167826380   10.05477199274540
H         8.28122750399882    4.60627872113159   11.38491813868105
H         6.55840407120091    4.35091681344683   11.71144737330769
C        -2.29288551190536    0.25935209181770   11.95008220770343
H        -1.62530526849073    0.17001598177450   12.80422263301171
H        -2.64072851168929   -0.73343345565741   11.67261132901912
H        -3.15539847225533    0.85561272671603   12.23655904228841
C        -1.71932638651656    3.36823059504415   13.16024843712678
H        -2.21706907233389    2.49518168663597   13.57261379356704
H        -2.30638339851026    4.24962938503809   13.41108886831597
H        -0.73545150560433    3.45123528520139   13.61131438679275
C         3.79813267018205    5.37044596471342   11.35506488186568
H         3.43637096669295    6.35291521522329   10.99029694869122
H         4.25431073393503    4.84393015186388   10.51162007899432
H         4.58581447485716    5.58040648617385   12.10999299597452
C         2.15783387829298    5.32225858849523   13.03847346716258
H         2.93076538589877    5.55075394342874   13.80087737389473
H         1.36485918693358    4.73447183220352   13.50828205988494
H         1.73368949521792    6.29356513231635   12.71263748001513
H         3.23138784064833   -0.10114743642015   11.44678644841933

