122
CSD_code = LUTLIW | q = 1 | S = 0 | Stoichiometry = C62H57P2Ru(1+) | MND = 8
Ru       10.96220156543652    8.36427174268349   14.39872905618989
P         9.07168708056665    7.33081638652226   13.56237656198726
P        10.78541296081415    7.60604116889222   16.58969199952327
C         9.90488117520429    9.98158707468227   14.61344011926450
H         8.80528659581215   10.04341102100772   14.61583222907869
C        10.48905890442166   11.26038948602715   14.49923119759034
H        11.56744312335680   11.35890148397147   14.57386077155998
C         9.76923308846661   12.37385549375981   14.21650176581081
H         8.69505060136387   12.28611568892567   14.12633886812562
C        10.41048649248016   13.68805478795154   13.89442063470412
C        11.13262535613040   14.24538914967406   15.15574755031821
H        11.86642995858016   13.51979696776779   15.50315503691101
H        11.65295132849294   15.15861033785992   14.85585571263112
C        10.18063085553661   14.58583714721176   16.25978451586446
H         9.54739975482193   15.43950672334720   16.06065444826671
C        10.07219888253460   13.96721166248855   17.43026271897348
C         9.10643209515414   14.44431526469636   18.47224455448049
H         8.57158848006607   15.32998827980738   18.14078120932588
H         9.63810533382687   14.68110408074457   19.39302402407258
H         8.38073471462396   13.66449651161016   18.70357381696690
C        10.91041475380115   12.78793930299950   17.84149206498826
H        11.04090119266299   12.08651453920859   17.02198947446255
H        10.44779538326187   12.25967077512399   18.67137140686554
H        11.89487847601044   13.12376068821385   18.16744573401883
C        11.38498728305610   13.34590330468769   12.76752169389177
C        12.76474977181157   13.44737142589067   12.86215444645859
H        13.23200180191275   13.84168575230481   13.75074574287126
C        13.57231026200640   13.05427558999117   11.80525989475136
H        14.64468044606954   13.14631209700570   11.89352521609560
C        13.01489684049682   12.54780062477277   10.64555918733461
H        13.64765779241445   12.23861936347406    9.82752606206825
C        11.63630307735634   12.44616565274005   10.53992475201170
H        11.19055319800948   12.05836654910728    9.63554094690325
C        10.83206062695533   12.84114747321286   11.59116888169040
H         9.75687255028931   12.77065806162668   11.50617020165198
C         9.42376430118026   14.74142313377392   13.41889210572956
C         8.12257836607558   14.80653436417055   13.90162843431014
H         7.77079736993180   14.09112636403830   14.63077637588876
C         7.26211638007728   15.80529404701229   13.47935510273720
H         6.25386802029478   15.83818426308928   13.86516852420574
C         7.69080180901225   16.76152026290005   12.57615255463431
H         7.01872424195642   17.53951992034866   12.24796076786916
C         8.99223166783461   16.71913599050664   12.10700110767527
H         9.34336803288963   17.46773370100288   11.41288514083510
C         9.85103626468191   15.72038817383519   12.52836360164812
H        10.86616000733910   15.70258865187891   12.15838496046190
C        13.11246422259957    9.12365396230387   14.11739733474786
H        13.67162307365003    9.89518533045029   14.62699509620760
C        12.42373194407063    9.26368652378932   12.89683739335339
H        12.32730948971252   10.17459808837979   12.31976163574391
C        12.01579383869986    7.96838195598865   12.47594477813942
H        11.59880148357926    7.72813918449350   11.50550405560461
C        12.51252366771534    7.01788638744294   13.41174370951101
H        12.50910428869170    5.94536027546376   13.27978234431121
C        13.17409579386437    7.73243792109114   14.42431847437433
H        13.77301905196434    7.31181747852701   15.22166662922171
C         8.08936097716183    8.33358623968836   12.39512885491723
C         8.66862308268702    9.42858913552302   11.76078712062795
H         9.68497827664551    9.71560543101313   12.00667121178234
C         7.94961622635942   10.15213930298489   10.82651181447184
H         8.40542737552700   10.99785413131240   10.33379068659300
C         6.64817066305801    9.78979178890888   10.51969495614904
H         6.08744145313866   10.35590007441425    9.79189037153754
C         6.06743253112858    8.69925871562405   11.14741425872572
H         5.05419826737952    8.41437274241752   10.90810352653020
C         6.78256240810329    7.96951270719501   12.07957309802503
H         6.32859696708243    7.11698705610264   12.56412398151679
C         7.76533939532567    6.69136630664847   14.66097672607426
C         7.31257419395560    7.55167941053644   15.65787317954547
H         7.76640925283708    8.52692394675696   15.75563501204345
C         6.30230630484980    7.16120313261230   16.51697725163034
H         5.96505450313338    7.83416380976300   17.29127644659708
C         5.73028047867533    5.90549829753088   16.38335922457798
H         4.94347020694250    5.59529135498845   17.05380959411227
C         6.16630246545636    5.05129564165868   15.38374654219690
H         5.71394418725399    4.07752331583055   15.27055482365972
C         7.17772398989409    5.43790850668643   14.52101895434369
H         7.50318060253253    4.76419067993840   13.74201879788589
C         9.49732101046955    5.88209420344452   12.54755262088236
C         9.40551300067604    5.88988928540013   11.15974794490581
H         9.03114007864205    6.76409151047771   10.64527554633793
C         9.78887638687878    4.77274877500727   10.43714395306240
H         9.71270581217903    4.78160538167615    9.36028221054302
C        10.26769783987241    3.64822623142330   11.08856693514238
H        10.56461421638157    2.78056004147427   10.51975668767534
C        10.36587488537990    3.63840388092147   12.47174668630552
H        10.73827913954473    2.76415767548715   12.98484043094585
C         9.98746258977509    4.75097489139856   13.19829128077893
H        10.06118857326134    4.75289492868898   14.27672865684919
C         9.63774977089567    8.25153892307874   17.85648786271051
C         9.10536630247612    9.52627970341482   17.71702680152864
H         9.32137640811704   10.09012462605844   16.81803307484536
C         8.31635937504806   10.06808353605899   18.71534591475759
H         7.89573955415228   11.05469997827708   18.59122586346511
C         8.06968423156744    9.34484833788386   19.87025869298379
H         7.45051867383265    9.76246141770374   20.64938304995834
C         8.63352486464068    8.08923536753202   20.03191201014028
H         8.46201469052019    7.53356610040434   20.94130964222532
C         9.42403832318586    7.54467382197354   19.03679981489488
H         9.87636120416976    6.57415733469216   19.18017804438185
C        10.61910567407471    5.79659260389798   16.68791944694145
C         9.40593122736405    5.18567391523671   16.99626562498261
H         8.54934530342308    5.78908849402398   17.25550759786179
C         9.29880777705898    3.80609172295576   16.97773955401550
H         8.35462558258230    3.34330247779280   17.22146468338529
C        10.39311828301315    3.02252449955096   16.64939330591491
H        10.30571450084693    1.94698198788340   16.64003181487708
C        11.60111768500716    3.62349088342874   16.33119132150945
H        12.45701536378490    3.01794610027978   16.07272873343715
C        11.71184408542095    5.00172607192874   16.34060912074569
H        12.65392188338450    5.46526997825581   16.08279772494261
C        12.29102478901419    7.98304012364623   17.55718806800168
C        12.90955777843303    7.09435123336060   18.42767695281002
H        12.55209382680713    6.07917063278344   18.52295449143430
C        13.99760698239655    7.51340472700260   19.17525417716264
H        14.48351685088495    6.81815834826934   19.84306349996981
C        14.45940326102908    8.81493189294060   19.07512714458457
H        15.30846313785504    9.13233544985821   19.66059184846699
C        13.82518816852354    9.71218502158313   18.22946613419492
H        14.17395710382816   10.73183691012438   18.16180336102711
C        12.74470111734624    9.29726636919929   17.47640743250538
H        12.22922375902248    9.98518523856958   16.81536517491762

