45
CSD_code = LUTNUL | q = 0 | S = 0 | Stoichiometry = C21H16F2N4OPt | MND = 4
Pt        3.79840543300700    2.70075531030308    1.77637407405531
F         7.85043423938640    5.64512774044409   -0.36056999322763
F         8.77637937962621    1.25652737528654    0.95388117134254
O         1.85785526333753    2.02590781519949    2.22551599171065
N         2.88233247417137    4.47165723530405    1.98682650180802
N        -0.68799943768335    5.22797575665680    2.32688978019477
N         0.46833099260319    7.91043735420003    2.24781622864486
N         4.60532243132738    0.91669691283398    1.80068686488717
C         1.52749498000473    4.35165933852612    2.11884307945042
C         1.02966345990578    3.00418090761004    2.21878135414175
C        -0.35566279443938    2.85553860753204    2.34186487435657
H        -0.78903476011946    1.87113287591649    2.41812198397699
C        -1.14000037055134    3.99279746051997    2.37447137845202
H        -2.21677587226005    3.91126420319464    2.46169252703556
C         0.63723314484976    5.44014759000946    2.21529383991535
C         1.18989310085495    6.77461516221236    2.21113344830041
C         2.59271669822020    6.83054265759560    2.18778890292716
H         3.10630454141362    7.77351346207726    2.24948568347585
C         3.37480984929816    5.69933897104203    2.07496003916052
H         4.44986981376631    5.80063813790809    2.06580221678284
C        -0.97247541305433    7.98320808989774    2.26890830848355
H        -1.33065447834279    8.50984933143439    1.38060721713264
H        -1.30136917271033    8.52832245588968    3.15697426621380
H        -1.37902741857134    6.97384236528093    2.28881735994848
C         1.13217391861592    9.19631451389048    2.23159318461899
H         1.75301246200025    9.31164039997640    1.33953021154531
H         1.75807632827291    9.33296014486121    3.11729487633873
H         0.37670069590320    9.97798953138498    2.22512590888955
C         3.90279525828476   -0.16764284279446    2.11838448311819
H         2.83277579508770   -0.03525123483551    2.20977356173964
C         4.49436494830878   -1.40064724827492    2.32312576828885
H         3.88863431780738   -2.25626383734288    2.57410082224049
C         5.87275772158574   -1.50360044977763    2.20482728373689
H         6.37121929489041   -2.44675656973888    2.36865707177982
C         6.60545033934072   -0.37862233380713    1.87134074330004
H         7.67544736115708   -0.44382775693128    1.77858086454463
C         5.95072612671683    0.83369133050582    1.66273659040423
C         6.55477922574889    2.09249447971737    1.24068001993557
C         5.64317912985535    3.18116188883720    1.14740617238648
C         6.11183919984177    4.36062815746295    0.57393588020117
H         5.45780702150972    5.19994296084221    0.39643447705756
C         7.43220857547824    4.48233117990538    0.18337725650520
C         8.34761914088525    3.45763372662125    0.33341045589131
H         9.37737405931656    3.57026302687480    0.03867619282969
C         7.88101299534823    2.26618381575563    0.85114107547388

