58
CSD_code = LUTPAT | q = 0 | S = 0 | Stoichiometry = C31H18F2N4O2Pt | MND = 4
Pt        8.10166920832169    9.92715640724269    7.39708894305328
F        12.71761538926520    9.66338417010723    9.87483365970071
F        12.14907440710830    6.37642090605132    6.60256291943320
O         6.14847768950069   10.74346575909604    7.45865648841323
O         3.75973045842655    7.29373424041361   -0.02753389737674
N         7.43708864352282    9.26034832223448    5.62588033493871
N         4.04839306311743    9.30293955841958    4.22508848662970
N         5.40054764299665    7.95057093274052    2.17872989197349
N         8.69068640754269   10.80483158047291    9.04594391141983
C         8.08064610349242    8.70283504673198    4.61005769211388
H         9.14902890118653    8.58294672161461    4.70811110797871
C         7.44579281964221    8.27497140737879    3.44879912609878
H         8.02987484609215    7.80202376870638    2.67483330062667
C         6.07429625806470    8.40494560715843    3.30631236570177
C         3.45718966892354    9.98573457669344    5.18459940647135
H         2.39881735809295   10.15464563832192    5.03098613249625
C         4.08301200891096   10.49610937273805    6.31009545965570
H         3.53464676023866   11.07505707879188    7.03622479511766
C         5.45437646016162   10.27327418044889    6.49234429649101
C         6.10290834932716    9.48693902192695    5.47586114410503
C         5.35962059132063    9.06026350190744    4.35292920036676
C         6.74506195103069    9.31606603611598    0.64960913914006
H         7.35737875698031    9.66722906021790    1.46428438754095
C         7.00317797552191    9.77667146664613   -0.63193419489764
H         7.82661611272670   10.45568832368978   -0.79082380109807
C         6.21230462921021    9.37711341236037   -1.69048654117343
H         6.41321691823709    9.72642485612542   -2.69079477571260
C         5.13733792272196    8.53576159339490   -1.45503897275069
H         4.47879586709279    8.22758367933605   -2.25122696280523
C         2.41324420926050    5.94690164409254    1.34549327283206
H         1.81369790272839    5.75465325078603    0.47009813183861
C         2.12105041040589    5.36163376173083    2.56623354731614
H         1.26914783273619    4.70628523255805    2.65709972051646
C         2.94075294694541    5.60465795388228    3.65141705632703
H         2.74465976432002    5.12916442093467    4.59997050622576
C         4.02759171971486    6.45407618806342    3.53120237907651
H         4.66953061144085    6.61687234130735    4.38192465748548
C         5.69779033441469    8.43672923566427    0.89830109225510
C         4.87102717418378    8.07803276366433   -0.17594968993814
C         3.49836055930802    6.79742346420558    1.22292299028470
C         4.29835570926743    7.09714536847979    2.33002974270442
C         9.98745560184229   10.65414527847001    9.40758537852176
C        10.51904179086210   11.41189388139022   10.44901307190682
H        11.55287433930755   11.30665916203027   10.72796163895827
C         9.71051696226042   12.30925567354300   11.12373855456554
H        10.11365940550016   12.90120331100156   11.93099098202346
C         8.38094894704739   12.43442660075091   10.74917808572503
H         7.71830851239091   13.11711516241216   11.25574141555874
C         7.91413549099986   11.66572619646254    9.69836935730505
H         6.88752900548011   11.73534731469078    9.36371598086041
C         9.89426251731894    9.04421912171858    7.59832584954231
C        10.67336301510119    9.62040916514224    8.63931963030647
C        11.94534646188449    9.11936685354771    8.90787075513148
C        12.47479904889370    8.04555237323044    8.22026968136594
H        13.46045080953347    7.67369767205920    8.44449247730215
C        11.67623533875847    7.45396391708944    7.26010118396028
C        10.41516513731234    7.92965487669652    6.94803631107485
H         9.84881527199614    7.39055158731434    6.20475319531562

