65
CSD_code = LUTQIC | q = 0 | S = 0 | Stoichiometry = C27H32ClN2O2Rh | MND = 8
C         1.10838192414290   10.90638404131869   10.69479364819231
C         1.71124565408884    9.68413446464150   10.41835273707495
H         1.65542938777528    8.90551842272003   11.16619691736953
C         2.34489205359379    9.48958556400443    9.20209991281230
C         2.29003462758810   10.53427590843069    8.24779650239238
C         1.64703856543281   11.74666304208427    8.52569956751337
H         1.60829501255413   12.51821502404907    7.77138814947650
C         1.06856665973417   11.94061904382455    9.75679141746177
H         0.57740988039818   12.86540593712713   10.01649001137713
C         2.90740864383348   10.18580929966763    7.01036951147808
H         2.90828457290830   10.84282456698063    6.14527008399831
C         4.05210776708097    8.52522084547676    5.80477912593750
C         3.72238186444519    7.26128254126248    5.31540690171038
H         2.95613456714066    6.68729866889516    5.81994853507307
C         4.34714390336845    6.77554497654485    4.18749161676913
H         4.06094882929304    5.80019235891766    3.82494885893645
C         5.32812407047474    7.50772425069408    3.51772577988928
C         5.64654244243119    8.76476477856550    4.01886735848843
H         6.39805114962246    9.37195180674375    3.54160663718402
C         5.01564254237935    9.27631190010390    5.13867850568111
H         5.29160928278446   10.24975104674153    5.51966927181235
C         6.00161244504474    6.90981157628351    2.29398436633409
C         7.05361067507802    7.83986888027882    1.68383384362899
H         6.60665635545001    8.77556496256984    1.35605809842564
H         7.49948545910744    7.36008027691210    0.81520423459042
H         7.84994739669048    8.05234031299215    2.39362798421771
C         6.69531184726405    5.60089765307771    2.69874297588822
H         7.43601080032121    5.79031040650066    3.47326279366960
H         7.19936144076883    5.16464833282771    1.83934596637655
H         5.98248781303359    4.87422023437941    3.07826692165249
C         4.93583977673841    6.62624161005161    1.22596327552897
H         4.19320331009192    5.91813472202822    1.58225896122474
H         5.40187383308435    6.21107192920153    0.33514376666481
H         4.42472847384274    7.54643678425243    0.95090481932149
C         3.52299566666992    6.30498345753038   10.10119081099089
C         4.40071039882744    7.37724260165972   10.42755558161731
C         5.30286978406365    7.53518866422700    9.32534980465283
C         5.10655633960569    6.42161609497878    8.41542932601450
C         4.01249011397979    5.68090726590746    8.87719127075570
C         2.49774351811921    5.67321937151397   10.99143099153279
H         2.19331191465090    6.34760399657255   11.78776954254285
H         2.91128335565615    4.76974897290878   11.44341707623000
H         1.61442259499319    5.39485771424224   10.41964536039762
C         4.48327074463573    8.12396518002132   11.72222772358769
H         5.31473119609084    7.72465027366918   12.30605729553351
H         3.57570088215171    8.01201213799011   12.30844562342327
H         4.66140740520568    9.18563013213920   11.56319178667604
C         6.48889415386536    8.44852837320993    9.30266192176794
H         6.28340154972673    9.37047984983989    9.84204316863055
H         6.77452585475812    8.69807120488202    8.28253793888270
H         7.33791462633214    7.95576429101795    9.78094072254485
C         6.04221840579252    6.07200753356912    7.30050692760876
H         6.36585104957262    6.95800919039204    6.75730308272206
H         5.57910086373459    5.39079433004940    6.59166669953836
H         6.92863723212539    5.58794645162826    7.71557701419102
C         3.46553796764829    4.40262287357570    8.32926538009215
H         2.39159337781809    4.48715669534813    8.16600433894161
H         3.63596932877451    3.59551372048268    9.04313223824719
H         3.94128849728582    4.14165581996181    7.38732378584599
N         0.50536452945452   11.10415834510095   11.98237449764023
N         3.42571699410647    8.99980340578272    6.96106485357994
O        -0.14858516476030   12.11332154919352   12.15538523541340
O         0.69099659594215   10.25406658316240   12.83164853619508
Cl        1.16602353480187    7.17430320706730    7.89286491406969
Rh        3.26635366077719    7.83436454223013    8.57652749198289

