64
CSD_code = LUTQOI | q = 0 | S = 0 | Stoichiometry = C28H32ClN2Rh | MND = 8
C         2.04230870399328   -0.34246714834757    3.94680164170923
C         2.66784367960361   -0.49296339140668    2.72005277008294
H         2.69437243404915    0.31482446760259    2.00115764617455
C         3.29396840217631   -1.69916214424461    2.39681472298286
C         3.88899879886553   -1.84574620505524    1.12495137199205
C         3.33804676426821   -2.76073308477575    3.31071891549193
H         3.83647470500226   -3.67832861776204    3.03544788087762
C         2.76448033364705   -2.60950179747625    4.55022149067550
H         2.81526477883260   -3.40346195179358    5.28114325759933
C         2.11751359235308   -1.41140489925644    4.87100525283369
C         1.52279066165953   -1.10280693087771    6.13010152791167
H         1.54630873630335   -1.78380276215082    6.97667822223953
C         0.39154662693218    0.52053015689967    7.40192431934593
C        -0.56107276476976   -0.24789840877096    8.06363021204749
H        -0.83695168932084   -1.21505317962230    7.66654107730824
C        -1.18212568777339    0.23866462391291    9.20014346739898
H        -1.92626591905161   -0.38103568840221    9.67301080341283
C        -0.86463071293143    1.48737570430810    9.72172246433745
C        -1.53222537827952    2.06144300542356   10.96019634883662
C        -2.22565074237167    3.37924534216669   10.58475650111652
H        -2.73359259556885    3.79447056277536   11.45232452816861
H        -2.96285537164366    3.20796215296114    9.80278639995708
H        -1.51190643503228    4.11542260425563   10.22597418947759
C        -0.46188891845802    2.32205889177994   12.02931698052063
H         0.27974284548111    3.03663687604698   11.68386716301864
H         0.04986181156160    1.39599315339469   12.28273388445940
H        -0.92334221318326    2.71917289580663   12.93074469045470
C        -2.58360830040382    1.12108635508606   11.55534997718172
H        -3.02729859011422    1.58497232876655   12.43371284139947
H        -2.13687967266852    0.17900590888713   11.86457262438173
H        -3.38136842956507    0.92255450791005   10.84311193109869
C         0.10872566438169    2.23524457316473    9.05841731836534
H         0.39558769994113    3.20417156660331    9.43753897236223
C         0.72364675937290    1.77437011298675    7.91481645900265
H         1.48154577156558    2.36180713863126    7.41347950657981
C        -0.78733076829781    2.61892159994947    4.87045748956521
C        -0.95109119891854    1.53351637209467    3.92016359732055
C        -0.07355363000331    1.77313083865639    2.81376554147031
C         0.76696295148741    2.86439255618326    3.17320283110060
C         0.27029191230974    3.41918638503382    4.42702178571891
C         0.77457012613435    4.69494856189368    5.02107086923182
H         0.54853527019029    5.52664922858649    4.35197387601347
H         1.85513381838427    4.65242212697677    5.15361209974322
H         0.31338520401038    4.88902820740106    5.98623611352423
C         1.75500271194125    3.57461367715825    2.29946549993208
H         2.06587005975746    2.95274948534671    1.46354302088481
H         2.64023497153304    3.84996510592498    2.87002022054112
H         1.30591904060424    4.48730096039225    1.90311397967932
C        -0.15030656250107    1.07704231053484    1.49000721965408
H        -1.04006714544201    1.42315929918507    0.96063921559271
H        -0.22461489449105   -0.00285824808845    1.60499468295232
H         0.71639238359475    1.29881172132025    0.87341909706214
C        -2.10214553336193    0.57555142286686    3.91771594278889
H        -2.97723479363317    1.05578305440418    3.47467150496069
H        -2.36171359507595    0.26949651990685    4.92941420045815
H        -1.87004627833773   -0.31282994733600    3.33437877607724
C        -1.71987723063104    2.88482188586399    6.01065947530674
H        -1.27451743507313    3.55548933861811    6.74077633700886
H        -1.99904664583593    1.96513427232614    6.52178238504739
H        -2.63153774949013    3.34796255335498    5.62738976988955
N         0.99897070664699    0.07649143292041    6.22389949250977
N         4.35789333655712   -1.96182122775927    0.08425021746484
Cl        3.20632513843820    1.97057739130732    5.29251339262243
Rh        1.10463048071230    1.28301639555093    4.63047400505954

