41
CSD_code = LUTREX | q = 0 | S = 0 | Stoichiometry = C13H23O2PSiW | MND = 9
W         6.37503885471758    6.28607898668300    6.26482821731340
C         4.85997193843066    7.20710830693891    7.08753179845603
O         3.94054920776815    7.74440983623760    7.54270387582360
C         7.48871913624907    6.46019062690571    7.85872833195763
O         8.17519666612882    6.57899392122715    8.78320511960890
P         6.97500670994007    8.63820241215926    6.24714294710840
C         8.65020866694217    9.05385688788068    5.62389287655267
H         8.75537829268177    8.71858444809017    4.59353016001959
H         9.37999633339651    8.53144582286311    6.24157390849729
H         8.82618401405485   10.12832745803436    5.67648581298799
C         6.96409711461367    9.54590623668971    7.83317973301148
H         5.98157215511311    9.44414835029884    8.29230545818865
H         7.18633187252173   10.60007248757610    7.66355365681316
H         7.70948037364723    9.11459581074331    8.49898744290890
C         5.92118977315123    9.75011642238457    5.23266660632719
H         5.89752238512471    9.40388700885838    4.20133291203704
H         6.29278018599003   10.77421319088051    5.26303076501725
H         4.90940703481011    9.71630796705238    5.63428894909079
C         7.21447339568804    4.47330599608936    5.08412786192377
H         7.74393135712616    3.61192244782797    5.46439463940030
C         7.80026882886958    5.63875747874660    4.55281191658942
H         8.86165333365855    5.83018030182466    4.45289615776854
C         6.76158035171164    6.41061654816680    3.95740681059146
H         6.90959337956360    7.29255036897877    3.34467765372712
C         5.54459622214203    5.71904920272868    4.11424312213829
H         4.59405712153472    6.00034046838466    3.68116839290378
C         5.81368354662929    4.53249134811524    4.82509115677984
H         5.10995543134316    3.72899889832274    4.99474624190282
C         5.29611466206188    4.94664850189326    7.83026367832287
H         5.20912566669402    5.43484354212000    8.80463765661774
H         4.27116450200926    4.79725643474931    7.47577335503365
Si        6.07163093237863    3.24308518070025    8.12806562314153
H         5.91745950626934    2.34568914857432    6.95551134177563
C         5.14035753077466    2.39894767957481    9.56317528406365
H         5.53017091907236    1.40345344533696    9.74895313677212
H         4.08160071945205    2.30158426436301    9.34669395280632
H         5.23556622258724    2.96608219873724   10.48375459182420
C         7.91630840175758    3.31575860446641    8.59690501431472
H         8.33172635280151    2.31770163790340    8.70395309104190
H         8.05660607903345    3.83161706478843    9.54165269370025
H         8.50504482155602    3.84307305610132    7.85252805513682

