62
CSD_code = LUTRAU | q = 0 | S = 0 | Stoichiometry = C27H30CuN3O | MND = 4
Cu       -0.01509088163394    3.39144398641545    2.03799155468962
N         0.56860740710960    2.15626124683523    3.25465933269919
C        -1.18997666027339    1.49018778811371    4.79237697790183
C         0.02346837634479    2.14713820508041    4.56207578085980
C         1.97496527390215    2.08007216359511    0.61652270047719
C         0.67866311915733    2.82793518852287    5.59101887973153
C         1.46418478067651    1.24986818354369    2.91992014123311
C         1.82860942990052    0.19649721748318    3.93274295853038
H         2.31630472909708    0.65246426741711    4.79238805875694
H         2.49703467838271   -0.54303664344807    3.50263048884906
H         0.93206751877100   -0.30175184962506    4.29716684599387
C         2.10451663567798    1.19856881910731    1.68621570194532
H         2.80814052118248    0.39188029529568    1.55185903627672
C        -1.02957786901536    2.08867644378908    7.11962096806646
H        -1.43384046218494    2.05341600479662    8.12033421651855
C         0.14246397052922    2.77723323722814    6.87032168782743
H         0.64819551862122    3.29294889282084    7.67358231506898
C        -1.69998479895983    1.46562416882266    6.08072931030027
H        -2.63361530398358    0.95583215728649    6.27055896727410
C        -1.92242493743196    0.86998479047541    3.64363491940519
H        -2.84632132385101    0.40533375720917    3.97804775900858
H        -1.31032035573136    0.12100394714565    3.14182733092836
H        -2.15623648952142    1.64575756420724    2.91122615599935
C         1.92747098057677    3.60743325351378    5.30829769106253
H         2.09504421335876    4.34969930457358    6.08463811176560
H         1.84346781340131    4.11439243184983    4.34699055827588
H         2.79969056295406    2.95425339280089    5.26243620190613
O        -1.05138826611433    4.64127575858413    1.48031978269311
N        -1.37050391552191    4.33995849511583    2.73130948397429
N         1.14040218194417    3.09506549066987    0.61575073703757
C         1.93025550641346    5.11566500302407   -0.47029949548528
C         1.09718069446730    3.99431602068163   -0.47886021369926
C         0.18051652334058    3.78363750569153   -1.51123854096358
C        -0.93386062176792    5.27337919744428    3.69095802241843
C        -1.33347692516422    5.06397656106589    5.01105559892081
H        -1.94213778354709    4.20474137305113    5.24302298810996
C        -0.18493004363293    6.40670672872550    3.36880118671669
H         0.08594554002923    6.57547487052722    2.33527201417343
C         0.14899750211076    4.68418984594209   -2.56479825605479
H        -0.55430278469134    4.53073599205095   -3.37057022602905
C         2.83978465358558    5.36098855853032    0.69663517753556
H         2.27600954135027    5.28394050772855    1.62844314332822
H         3.28834597983383    6.34934903892748    0.63356007509267
H         3.63815877505072    4.61953319015165    0.73997416772362
C        -0.95539791079268    5.95751061857739    5.99331118467985
H        -1.26307736212076    5.78850318193383    7.01495438973137
C         2.83713385380424    1.85511072690222   -0.59604977891415
H         2.21461236557533    1.73490683040682   -1.48107650456446
H         3.45844227272609    0.97285907221509   -0.47592681659394
H         3.47723980433979    2.71852319746353   -0.76882423607968
C         0.99565417501027    5.77785157219813   -2.58724797662825
H         0.96048386925780    6.47108732213436   -3.41457750272290
C         1.87025593045597    5.99767221058197   -1.53866356649969
H         2.51028734114377    6.86848325484220   -1.54294226408001
C        -0.77342205597151    2.63218925243329   -1.43284388449452
H        -1.39855560803734    2.58569758081986   -2.32081799882759
H        -1.41054807363032    2.76259335166045   -0.55653207158953
H        -0.24845880387339    1.68423540415864   -1.31778737150884
C         0.18395682329003    7.29425233272315    4.35835963417298
H         0.76661335397568    8.16816160106227    4.10364631127386
C        -0.19013396029224    7.06808791538807    5.67398539902427
H         0.10391098036598    7.76442222165835    6.44578275690657

