67
CSD_code = LUTSAU | q = 0 | S = 0 | Stoichiometry = C24H21CoN18O3 | MND = 6
Co        9.77135874432566    9.04864356186094   -3.99428492790646
N         8.38959149837195    9.46049457811038   -2.81613334194545
C         7.47541193967549    8.49482528680839   -2.75873125395350
C         6.35217618573720    8.56416603025308   -1.94585607545987
C         6.17051705565757    9.68000419066172   -1.15369615235971
C         7.12586205732564   10.68328042128299   -1.21285349308960
C         8.21262557163745   10.53675746661463   -2.05412207028612
N         8.88220125927803    7.39741371486580   -4.26656243138273
O         6.90797535522127    6.37729285844566   -3.67196391783701
C         7.71241582072559    7.28830004469728   -3.60653769220154
C         9.33400043807301    6.28274387208250   -4.90865031606396
C        10.90659388904569    4.47701662580238   -7.39799196974441
N         9.22792280421254    5.02668623294858   -4.41689113768695
N         9.78487861005198    4.24957059101325   -5.27384201937059
N        10.22139356950158    4.99138038494154   -6.25600705094071
N         9.96894248990842    6.27442779837648   -6.08118561215071
N        11.10337692772729    8.56889259492630   -5.20684386729587
C        10.80940876412844    8.92228261397026   -6.45867170332770
C        11.63523895750939    8.62540038167291   -7.53398673512420
C        12.80063125239199    7.91886016186966   -7.30647092540725
C        13.08774420025897    7.53094449156507   -6.00550983054802
C        12.21665432980823    7.87388854219679   -4.98634598983583
O         9.14445333977352   10.01422176764159   -7.76560892491809
N         8.85429533793437    9.74448761606087   -5.49917388623208
C         9.49568531752185    9.60972220045044   -6.67073138880296
C         7.55679491051900   10.16814124118554   -5.50399560880516
N         7.06688607155264   11.06349993662567   -4.61547617422839
N         5.81307094186031   11.19568039980245   -4.88840199886542
C         4.25709209762415   10.29420932958375   -6.49335115259557
N         5.55255134328995   10.41908191216902   -5.90591200050553
N         6.60081185090963    9.75134692250043   -6.33016939706619
N        10.72453171076978   10.63656696617846   -3.67020514476475
C        11.63227195564852   10.49349801165791   -2.69909714316034
C        12.51471034421121   11.50474383753963   -2.34567179678577
C        12.45652213442925   12.71010979337227   -3.02119139559487
C        11.50017959204479   12.85927060845687   -4.01641224663247
C        10.65543044702804   11.80304484960427   -4.30959884682718
O        12.33273611561392    8.96939363422185   -0.99810569526508
N        10.70558802325033    8.38129503977779   -2.51142752758483
C        11.60753165814246    9.18888160678598   -1.95498608676897
N         9.36106647421741    7.06657097098892   -1.02731423436187
C        10.34722190948976    7.18601951874769   -1.93709759207485
N         9.23345698533162    5.80328297757151   -0.80601238497748
C        10.19232265521759    3.76240656115341   -1.63773667916060
N        10.10455934086243    5.18321393451700   -1.54787785897328
N        10.83666199619389    5.99667562962640   -2.27509264761464
H         5.66506538902887    7.73246312580783   -1.96407186590211
H         5.31072989659889    9.76981877972080   -0.50783247237367
H         7.03284567073076   11.57745039534228   -0.61767880093743
H         8.95288866956238   11.32047772816037   -2.11275212195073
H        11.32384243152876    8.94714827143368   -8.51554034748170
H        13.46420491466202    7.66414155009151   -8.11937265909306
H        13.97489231070292    6.96213411949409   -5.77445946991975
H        12.41327360877454    7.56222799092099   -3.96997813344273
H        13.21426511814864   11.31067739438561   -1.54738953684840
H        13.13021321189526   13.51681374759487   -2.77606833583763
H        11.40323882718166   13.78442576656237   -4.56167383338106
H         9.89262543882830   11.89887500165161   -5.06834594593762
H        11.94675465241463    4.80752204096207   -7.39059592807724
H        10.42585919000929    4.83957145886020   -8.30651163724786
H        10.85955121922484    3.39136949853260   -7.35099269337105
H         3.90534231176069    9.26689718304235   -6.39258283463040
H         4.31019147492540   10.54618925724020   -7.55258426889030
H         3.58826278880608   10.97573493230734   -5.97289477839844
H         9.58111930526134    3.34094062673025   -0.84372387993932
H         9.81143375253478    3.45220838620588   -2.61316046557203
H        11.23124554339620    3.45137503376500   -1.53500366430102

