65
CSD_code = LUTVAX | q = 0 | S = 0 | Stoichiometry = C18H38Cl3N3Si2Zr | MND = 8
Zr        3.23353937558020    4.21538074647107   13.71047588158162
Cl        3.85727769694743    2.77181464292978   15.44419103582583
Cl        4.10826633796868    6.14012449892074   14.74612699780810
Cl        1.15650643397498    4.66499835859052   14.71224008011072
N         5.01051654806413    3.90927325042136   12.65340842450149
N         2.49892910609603    4.52300391959648   11.78413989936094
C         5.35494273584987    5.08667735621801   12.13758087043250
C         4.37004542300347    5.96715127678830   11.60007565786258
H         4.72122905563321    6.94831815440030   11.34020726708364
C         3.00934424500521    5.72085130769944   11.47266099757845
Si        5.93364541825810    2.43510534773347   12.58338795203802
C         4.59087916161874    1.09944443959559   12.31842556737701
H         3.84999714406085    1.41291305815470   11.58582761315592
H         4.09056119389461    0.87155859769906   13.25706098080298
H         5.03624178860958    0.17575491454710   11.96266711740026
C         6.97392018303743    1.94678037864141   14.11590330367970
H         6.49801143375359    2.27264522654976   15.03679165812631
H         7.98330372044199    2.34576070014992   14.09283552200563
H         7.05658038147632    0.86565789741545   14.16570534655862
C         7.06568320164862    2.47381192125138   11.04015338685672
H         6.53426774138186    2.85559867572364   10.17435332449129
H         7.41542345745839    1.47584978917564   10.80150985827682
H         7.93921048282346    3.09766052170364   11.19051647466928
N         6.66260957704373    5.47307603772573   12.12740677229814
C         7.49065998963280    5.26286536599140   13.29971862123437
H         8.47239451805306    4.89216999578738   12.98470340420888
H         7.01266679406897    4.52663876810505   13.94271234066242
C         7.64294617622318    6.57100647871865   14.08408871617992
H         6.65902216469451    6.86751853733608   14.45363693598178
H         8.29175302641743    6.39257741563455   14.94222610804602
C         8.21580202679966    7.67409037909084   13.20120286731230
H         9.22265622667107    7.40196506201422   12.87328932336029
H         8.28504180062650    8.60628621615600   13.76318442299937
C         7.31319381436770    7.85589978474700   11.98545134645922
H         6.33225614865858    8.19657162550579   12.31999781605713
H         7.72516027224125    8.60011512648551   11.30202303667796
C         7.17899160491423    6.51373064624750   11.26333332255764
H         6.55324799141705    6.59258265993102   10.37422428268518
H         8.17648867375246    6.18825234473574   10.94173559461810
C         2.08441126551769    6.88795404064821   11.10229446450054
C         2.81289506224339    8.21580031701461   10.86242467395019
H         2.07412876474172    8.97618084872947   10.61580214176151
H         3.50900534855889    8.15063578212416   10.02898161244787
H         3.33920901409797    8.54308723114255   11.75570768567292
C         1.27898809082290    6.56946863445899    9.84051310265373
H         0.52234148982714    7.33419949849080    9.68013308620579
H         0.78780862312289    5.60742367928210    9.91788701368250
H         1.93884863292213    6.54777621055484    8.97546272854871
C         1.17489117253587    7.07942589526737   12.32730530292255
H         0.54918963876548    7.96009015314933   12.19587963393423
H         1.78810464811056    7.21906967146666   13.22363455301890
H         0.53355544140648    6.21823736163645   12.48515174156733
Si        1.12569928894728    3.52187348795509   11.47788001595756
C         1.36120228846781    2.74378174684770    9.74058409402478
H         2.39949910834273    2.48399167588545    9.55900764772700
H         1.05178193490552    3.41595194794063    8.94833551136040
H         0.76911147638093    1.84054103408879    9.64613887052883
C        -0.70889320985737    4.05804267038503   11.67515858420783
H        -1.01978572859103    4.85180943954511   11.00338313214947
H        -0.90606004975089    4.38277991426685   12.69379482045026
H        -1.35112336584211    3.20378057155590   11.47844203424698
C         1.36620493785678    2.14042709659343   12.80454772765934
H         2.30085597812547    2.29293361583412   13.36965578580808
H         1.39576244201187    1.14568021633995   12.36562624211274
H         0.54515463417072    2.15407583419415   13.51998766396560

