90
CSD_code = LUTXAZ | q = 0 | S = 0 | Stoichiometry = C41H42Cl2N2P2Ru | MND = 6
Ru        2.40687335743972    5.19122384822903   11.83426450437980
Cl        3.49628327737984    3.12194019177033   12.37932412150394
Cl        1.48051291884403    7.39959365870501   11.89272770043548
P         1.13465007528609    4.24253100853951   10.20584083665512
P         4.03544092212725    5.55541959444286   10.31071064380113
N         1.05643904726482    4.71056107814688   13.45310654744350
H         0.06420871821249    4.84372030140697   13.25174709363618
H         1.21055220759464    3.71104016008298   13.61727806979130
N         3.52365518347202    5.97855002022804   13.50999246648825
H         4.53182711726497    5.81704424608047   13.48084259554449
H         3.36090059137763    6.98996318013148   13.45039751328358
C        -0.14010489855824    3.07205684917679   10.80708472683274
C         0.28327947565958    2.06019934776319   11.66820107818413
H         1.33170109987246    1.99215554610257   11.93045126976262
C        -0.62297571462628    1.15205787207894   12.18215679226437
H        -0.28387302907662    0.37011931864986   12.84639036140874
C        -1.96431986861258    1.24422647430131   11.84590223802508
H        -2.67460106213191    0.53704221232404   12.24865837133897
C        -2.39112848792147    2.24568987818422   10.99079481668663
H        -3.43541983900943    2.31904641858053   10.72311074810682
C        -1.48693475907022    3.15711915714640   10.47212520555703
H        -1.83201981619687    3.93299912989016    9.80418089241243
C         0.15351196281865    5.27124050915772    9.06382583274574
C        -0.64005096831279    6.24555543099445    9.66921968971434
H        -0.63038044185177    6.33303345885618   10.74773344458343
C        -1.40529390654203    7.10570302528712    8.90636320775423
H        -2.00962615393655    7.86054451154005    9.38758727291634
C        -1.38672633917604    7.00348801580428    7.52435007786743
H        -1.97669573219020    7.67946083915791    6.92245878309719
C        -0.61054635071925    6.03216910139621    6.91610028349898
H        -0.59882280116530    5.94671091759288    5.83873692411266
C         0.15557835792767    5.16626655996267    7.67804777581434
H         0.74600467735531    4.41240355055659    7.18039410334452
C         2.07129713102054    3.09612614514116    9.10312760926566
H         2.45422788615414    2.30744583292383    9.75892818910210
H         1.36116932966585    2.63861139040112    8.40585973761297
C         3.23428064077029    3.74741599315887    8.35213093573019
H         3.57755539594988    3.05168282417920    7.57912006987095
H         2.89913688794634    4.66379203396960    7.85463407166836
C         4.41270594825369    4.08491949804612    9.26447519260245
H         5.30274153591639    4.30863730503781    8.66675839659329
H         4.62456627414997    3.24188182790496    9.92638655107392
C         5.62839174130953    5.95086037835513   11.09591799617887
C         5.81398348973055    7.27270118895757   11.50330494412530
H         5.05675428342100    8.00690959736302   11.25485592835139
C         6.94482082899360    7.63415293796038   12.20964108019107
H         7.08673169117491    8.66061710330313   12.51574253490723
C         7.89545953803895    6.67585012676553   12.52879572020729
H         8.77995791656225    6.95622446316450   13.08178368815942
C         7.70634887145448    5.35843443754665   12.14568099627140
H         8.44220905893424    4.61077202190418   12.40410845348853
C         6.57511314016011    4.99115195478308   11.43623310199729
H         6.42371184312621    3.95881327365370   11.15915420305655
C         3.96552330526599    6.82795995842969    9.00741808237601
C         2.75796333013005    7.44649935307020    8.71503141746962
H         1.88977421144504    7.21937323653154    9.31608503010347
C         2.67691654092874    8.36081654167189    7.67915936219941
H         1.73227407587293    8.83494023962121    7.45633316645060
C         3.80458414234010    8.66566799075928    6.93679743600679
H         3.74496299191590    9.37990268367963    6.12825532741060
C         5.01682038186056    8.06097548882956    7.23472267102035
H         5.89884069383736    8.30705229937808    6.66060753744794
C         5.09970184605214    7.14327081226520    8.26400247501208
H         6.04646992911265    6.67582651570553    8.50200826250866
C         1.42851048947412    5.47257620748968   14.64784172524117
H         1.10688956311318    6.51070799857463   14.48803677196574
C         2.97248102619107    5.45413581435543   14.76030685772868
H         3.29937388273705    4.40900918052674   14.85239262310376
C         0.82117793058484    4.93509859125600   15.92216942992275
C         0.90683136253899    3.58336024340995   16.23445340227692
H         1.39023704089369    2.89338990528771   15.55603402363206
C         0.38755522299948    3.10559332138373   17.42394885611449
H         0.45967782976686    2.05321237683593   17.65576730589899
C        -0.21627930906755    3.97349878717425   18.31746473274093
H        -0.61807895503288    3.59987011246546   19.24741504292465
C        -0.30024680751161    5.32172569870212   18.01565949094904
H        -0.76746501165145    6.00420674285234   18.70981239826987
C         0.21476988108030    5.79902122578686   16.82391488439982
H         0.15145488329630    6.85225233321436   16.59163111249286
C         3.40264270445835    6.22941994926956   15.98337858615599
C         3.28345643639518    7.61363804352353   16.02294186367336
H         2.89968121184108    8.15453218962531   15.16864172396164
C         3.64163777017408    8.31390947741652   17.16053912796916
H         3.54550190978068    9.38946017954501   17.17998878924772
C         4.11567209686805    7.63896738198134   18.27244785316875
H         4.39201921693996    8.18659495379361   19.16109037576939
C         4.23169055819951    6.26006991434500   18.24178375873873
H         4.59841776833704    5.72761227689735   19.10668176985946
C         3.87803353674788    5.55978885158656   17.10250588955481
H         3.96676405860304    4.48308737595833   17.08158544680450

