162
CSD_code = LUTYUU | q = 0 | S = 0 | Stoichiometry = C60H93N3NiO2Si3 | MND = 4
Ni        7.31483527431038    3.98741488947073    1.28369650280250
Si       13.34252339796233    4.16958521888298    5.89670162920000
Si       10.71997239913174    0.60132051559442   -4.83465203192563
Si        0.29785130144524    2.98237696187878    1.31005138270841
O         5.75155197661205    6.48341528226666    2.36680480385898
O         5.43216021836409    3.95931551164729    1.73569994127080
N         7.72499250385298    5.28550994852238    2.50022142097136
N         9.11239238085039    3.62867113215387    0.93436688097105
N         6.82835357054423    2.86030914462223   -0.02561620747258
C         6.78032274955793    6.20873204847580    2.94762760190882
C         7.32766593877353    6.83267944672134    4.17755511438901
C         8.56362613633878    6.32834247977295    4.37583432306110
C         8.81218665762012    5.35981926279107    3.29312478430615
C         9.99163315403000    4.68319164085596    2.97936412365072
C        10.14551998425384    4.03038205425770    1.71638933896704
C        11.38816988405554    3.71912471074162    1.06536413311012
C        11.07522148197151    3.10822073313584   -0.12122092904807
C         9.63699831997416    2.99895159702428   -0.18084271530037
C         8.87358477568363    2.31400954065284   -1.13905998661288
C         7.45419828111918    2.22074965736400   -1.03644918800025
C         6.46315571853023    1.55837057937400   -1.83626233417301
C         5.23299622477042    1.82119502685681   -1.25915511613712
C         5.48638288655632    2.65114391204664   -0.13949070742284
C         4.75954903153460    3.30154858083458    0.89699755501466
C         6.56612372947332    7.87935630391375    4.91048865631071
C         6.63970841432331    9.21939339660520    4.17353919178777
C         9.53431748302053    6.73881799622309    5.42998009865465
C        10.54225413428987    7.75161251666758    4.88269299672309
C        12.75669684821832    4.11259284040224    1.51711527969012
C        12.95980722460340    5.62448220245262    1.39680765829980
C        12.07221286147555    2.63241139665306   -1.12379218972966
C        12.50375460185437    1.19706482999113   -0.81622888743782
C         6.67876702652167    0.67465069680776   -3.01961819578094
C         7.04573185747366   -0.74232091321727   -2.57427800884389
C         3.87819298508921    1.39600651397249   -1.71725390902011
C         3.24633063257525    2.47357687196280   -2.60107643013477
C         3.34693306634043    3.20014470406018    1.00351040248273
C         2.14131826187118    3.14405202283890    1.09927117786588
C        -0.39734987808667    2.63367810083530   -0.44914246635421
C        -0.20596334982586    3.83306298050767   -1.37380167189611
C        -1.86722996935540    2.22034259857770   -0.43222876180498
C        -0.36215412961940    4.63387421081876    2.03975404150113
C        -1.68328223425082    4.45759734300077    2.78862850420433
C         0.66668673546672    5.31270345619078    2.94242939140600
C         0.06310634615240    1.45603048726251    2.45465933284733
C         0.59108421938531    0.18769179561954    1.78620058346560
C         0.76052942159031    1.65023943061290    3.79887249615000
C        11.04488483660908    4.59381541399680    3.90991136962586
C        11.91250724758741    4.40816501042863    4.73800510910083
C        12.79713905353064    4.87771145078163    7.59966508407894
C        11.45252822573137    4.32637412037295    8.07039556042493
C        13.84493721222449    4.67057170992208    8.69111308181252
C        14.77333998540003    5.18759649591694    5.10083605068093
C        14.51538952932974    6.68760672557590    5.20317968782897
C        16.15386738305720    4.85355513413464    5.65985119108130
C        13.82761959482616    2.30918856562470    5.89658905948062
C        14.11575285609991    1.82912724338012    4.47502322003138
C        12.75959399809802    1.41531972577387    6.51970773967179
C         9.49079571321089    1.70484489053521   -2.24859199660078
C         9.96517088346894    1.17961822070601   -3.23556953892492
C         9.29823191576879    0.72809201665000   -6.12687861205140
C         8.72375895443833    2.13722907336029   -6.24793090959003
C         9.69537474590200    0.20969528852225   -7.50742503902782
C        12.26944382774662    1.72008207857255   -5.07368445014025
C        11.92498210954917    3.20341198765978   -5.17848403172888
C        13.13403382174055    1.30506455930003   -6.26230411704183
C        11.28580199910256   -1.23037652933284   -4.70138917969921
C        10.11682394620446   -2.17192975655599   -4.42819294291371
C        12.35269356578276   -1.42215571983836   -3.62763775879864
H         6.95295815456051    7.99227217612304    5.92538766547934
H         5.51988187839004    7.56947016225045    4.96428445521781
H         6.05807370558504    9.97181908963437    4.70090817264932
H         7.67004341446426    9.56192452621235    4.10289932838999
H         6.23940946669136    9.10903860658517    3.16912488153272
H         8.98548906794438    7.19349868733004    6.25678264235331
H        10.07057141993237    5.86934174914933    5.80572251177627
H        11.23158228866350    8.05528971428501    5.66656926979104
H        10.02938063279424    8.63469092435070    4.50859138588567
H        11.11506069477098    7.31368838582174    4.06936907258546
H        13.49891032615220    3.60181758747742    0.90328699593909
H        12.91313359751997    3.81200065437821    2.55103724784460
H        13.96728878618865    5.89568067029611    1.70272442158301
H        12.80858830498109    5.94806832380812    0.36910556889113
H        12.25525714718543    6.15462970604545    2.03171770013949
H        12.94700496440922    3.28434638510232   -1.09196979441235
H        11.65502125808844    2.68214488519468   -2.12639487274081
H        13.24977092503991    0.86370782761520   -1.53292338531944
H        12.92763586302659    1.13500841929920    0.18365433213648
H        11.64783435358199    0.52963855927062   -0.87002708431351
H         7.47158700577503    1.07260438755506   -3.65026033207502
H         5.76022309368946    0.64014512749393   -3.60778063822507
H         7.15917190428856   -1.39446975958514   -3.43665286748924
H         7.98123682466422   -0.73001434222969   -2.02053846264603
H         6.26923270366379   -1.14952654419051   -1.92998493213788
H         3.94909443328920    0.46031715783899   -2.27429275116628
H         3.23912694601612    1.23119827101610   -0.84711178792066
H         2.25390536441778    2.16789481869536   -2.92251764767635
H         3.86002892878732    2.65154772069550   -3.48158565539737
H         3.15959384288232    3.40514584742374   -2.04723744228710
H         0.17748815921680    1.80279984619483   -0.87119525008704
H        -0.49931993762696    3.58293417107871   -2.39269928899498
H        -0.81697614101986    4.67120706825690   -1.04694713270576
H         0.83309018600594    4.15107878580780   -1.38318909845751
H        -2.20594599181740    1.97301567214679   -1.43805360399986
H        -2.48945504417351    3.03231272316519   -0.06208241992111
H        -2.02460661750999    1.35052287421939    0.20133020248773
H        -0.54897637042334    5.31346829463602    1.20185747704108
H        -2.05420140278845    5.42239886993908    3.13351089648209
H        -1.55231406725917    3.81895689273143    3.65923476679401
H        -2.44363462211194    4.01184828062266    2.15114648070430
H         0.28626691826675    6.27092862058686    3.29432420975218
H         0.88904316245762    4.69833685385979    3.81091073117366
H         1.59662138374275    5.48754922733134    2.40842348854970
H        -1.00462198223985    1.31129633041642    2.65024515575173
H         0.44798749039668   -0.67392801549615    2.43735258552717
H         1.65498317916927    0.28486669067639    1.58097079725826
H         0.07778270993015   -0.00755773164363    0.84817988241945
H         0.64730800900671    0.76163856426441    4.41931016665036
H         0.34208478342788    2.49372953241315    4.34127469814452
H         1.82278016847210    1.83184522674977    3.65271627551125
H        12.66856001345452    5.95672063326461    7.46271191797798
H        11.08247682189251    4.90091500803483    8.91895287530567
H        11.54742297635913    3.29135745779232    8.38592015605551
H        10.70944122298193    4.36774367102998    7.27853324477311
H        13.49665384146538    5.08591737848672    9.63675786323066
H        14.78168322534431    5.15959907289074    8.43555680064836
H        14.04184571101733    3.61103440099341    8.84227179395441
H        14.78503071603328    4.93658601833714    4.03509395245992
H        15.28127383974330    7.24732658252426    4.66705517775638
H        14.52893173156036    7.01105959127272    6.24146806146192
H        13.54748571416203    6.93765285036226    4.77739475052961
H        16.92306695100091    5.41716967072414    5.13163594835901
H        16.22072741710648    5.10924743965564    6.71465933674862
H        16.37708777704374    3.79522174336015    5.54941669685043
H        14.74520955324821    2.18326401233863    6.48170124066779
H        14.46405746074418    0.79667116951917    4.48349822188200
H        14.87724499393390    2.43952941237089    3.99634048020806
H        13.21045335082289    1.87454806166279    3.87370777590374
H        13.03284511987463    0.36579114545565    6.41163303263397
H        12.64510191290811    1.62158366056338    7.58007308778625
H        11.79963863485568    1.56843783872302    6.03204974848589
H         8.49145669767091    0.08567777180990   -5.75622687039490
H         7.80982390255977    2.12613854887128   -6.84082729598475
H         9.43042624006977    2.80024289044462   -6.73929292369178
H         8.49299347113039    2.55271793181828   -5.27002201816130
H         8.83641330779185    0.21978275250621   -8.17810698872203
H        10.46796239311574    0.83586587395945   -7.94793274148196
H        10.06971560523602   -0.80988080799320   -7.45323474657900
H        12.87525328927371    1.59641792050928   -4.16901835963217
H        12.82775073580500    3.80993481619917   -5.11436872415795
H        11.44678690367399    3.42012824510289   -6.12991500645516
H        11.25030210523491    3.50739856716619   -4.38193769350775
H        14.03724788412245    1.91353871587085   -6.30470123898897
H        13.43276009476255    0.26218663809477   -6.18824779338429
H        12.59711593602339    1.44173331410326   -7.19820153343872
H        11.72727740759381   -1.52333317233269   -5.66040329278487
H        10.45931801903342   -3.20579384353774   -4.39267399550935
H         9.35845644098002   -2.09437409136533   -5.20293638089268
H         9.65777815877747   -1.93419512671678   -3.47234255279738
H        12.68239596683881   -2.46032179659707   -3.59788608605436
H        13.22156917332133   -0.79773732707513   -3.81850567131488
H        11.95388406907273   -1.16552250655583   -2.64982745616653

