76
CSD_code = LUVFOX | q = 0 | S = 0 | Stoichiometry = C30H37N5O2SZn | MND = 4
Zn        3.36311446125553    9.74912314596457    3.85378557911762
S         5.05477633948549    9.33998734756884    2.39151483882378
O         1.68329134625172   10.33408732393074    3.41800915293980
N         3.60960809938936   11.17827078537779    5.33314067892581
N         2.46474841088169   11.27541686597419    6.02349429324908
N         2.95737521695130    8.38142575971403    5.31416143304789
N         2.34226184645093    8.91290387893194    6.38220828207215
N         5.93981194612698    9.06378988666113   -0.38937369942409
H         6.02582005479435    8.51850887452815    0.46227268293975
O         6.56554520426295    9.15467656427140   -2.58326685676591
C         1.01309878468911   12.96230547544717    7.14193192123195
H         0.11619195359699   12.62685754413304    6.62186254584325
H         1.00644280400818   12.53691447658197    8.14650061755225
H         0.99032204190699   14.04474202149405    7.22739319938399
C         2.22620453473458   12.55036340929681    6.39424858383990
C         3.28764626446070   13.30011634166228    5.92881476016272
H         3.43024643276247   14.35503142448264    6.04098913163852
C         4.12859639229990   12.39961395779076    5.26509420365331
C         5.41834556972187   12.66579477690936    4.58037856991944
H         5.81535615889239   11.74539990560708    4.15900114926620
H         5.27760222764702   13.38906265520171    3.77864054038747
H         6.14070967351012   13.07696540744856    5.28395328900684
C         1.82419703228170    8.35680264380143    8.77243220802599
H         0.73830348417247    8.42471637475287    8.71072901345021
H         2.07745287780375    7.54831201762512    9.45230707490792
H         2.21064793425523    9.28853151153660    9.18552746445405
C         2.41508956269344    8.07328475305243    7.43978399866238
C         3.12172283161172    6.96665941799441    7.01820515816223
H         3.37261072179812    6.10361411782527    7.59954434631863
C         3.44623388390856    7.20507007777254    5.67716122357552
C         4.19385111132786    6.33829944850515    4.73490747617768
H         4.60457609287819    6.93447281632451    3.92348254006783
H         4.99971587461778    5.82430509209191    5.25283531867349
H         3.52657211598023    5.58923171337700    4.30934370893740
C         1.59457021657702   10.14855926724329    6.31032163801948
H         1.20917104683554   10.32004972145665    7.32382716249139
C         0.39863811344512   10.04617628338819    5.38425804314491
C        -0.84308660905252    9.86037290961432    5.98699135411583
H        -0.90631528035118    9.80935210352740    7.06760014564065
C        -1.98726783727661    9.74561379429356    5.23120901738892
C        -3.33445080996056    9.54575013429358    5.86052969325152
H        -3.25852844562931    9.52406567582542    6.94526631568008
H        -4.01170544426099   10.35075578715229    5.57695849582693
H        -3.77607582862381    8.60747831832775    5.52618381710082
C        -1.86577656386145    9.82386397909108    3.84370394750512
H        -2.77322418651318    9.73027955957777    3.26937884507938
C        -0.66218904901821   10.01145771089774    3.19978521148825
C        -0.57082291039880   10.09310715823045    1.68078847993096
C        -1.93218353113912    9.93883251162877    0.99400832587705
H        -2.37800520975395    8.97058610465665    1.21142601561759
H        -2.61930439243880   10.72656231670234    1.29533975558763
H        -1.79461899388608   10.00966282096076   -0.08313490475859
C         0.00390067859684   11.45970343555807    1.28553582909713
H         0.09733261014578   11.52951564188890    0.20384193084522
H        -0.64970611164751   12.25801825268417    1.63358064097574
H         0.98625439754676   11.59375304020412    1.72447923887030
C         0.34171521774716    8.97320730270597    1.16273948160447
H        -0.05193202144246    8.00078675925374    1.45419126635578
H         0.40488246641477    9.01442494835085    0.07739320931259
H         1.34508561878865    9.07787357503063    1.56490445270429
C         0.52486878856096   10.12559831782976    3.98320976453420
C         4.67230186652589   10.46681879290687    1.08320019494010
C         3.91368154681829   11.60281700756825    1.30999363876816
H         3.53365773694301   11.79635535257697    2.30592503012637
C         3.62950249738432   12.47951210330299    0.27858805938260
H         3.02656269059104   13.35422395574629    0.47286870240524
C         4.11679391116938   12.22823216607345   -0.99151524940874
H         3.89858253735354   12.90779335811646   -1.80153199454000
C         4.88595629172868   11.10358586802266   -1.23238299082745
H         5.27108875443234   10.89987751299686   -2.21743222937209
C         5.17512063105287   10.21458075049206   -0.20503120891458
C         6.56727345419930    8.60468748851811   -1.50349186133643
C         7.28893017854274    7.29466012495353   -1.24483374985829
H         7.78838406534068    6.97450135266872   -2.15445338789533
H         8.02471144547102    7.42331470528570   -0.45412589830503
H         6.57613717564973    6.53227421677567   -0.93800865667270

