13
CSD_code = LUVJIV | q = 1 | S = 0 | Stoichiometry = C4H6AuN2(1+) | MND = 2
Au       -0.00011660394320    9.80958086836709    4.90485638825879
N         1.77229805982274    8.03743102009383    3.13261476584156
C         1.10791459785637    8.70199810572406    3.79709933096274
C         2.56906629089996    7.24061881005964    2.33577463659521
H         3.07022262294105    6.49516479091091    2.95568585684463
H         1.94909458599443    6.73949451570980    1.59035155758862
H         3.31448691997923    7.86056610940247    1.83462711010741
C        -1.10788448371583   10.91742777787279    6.01261250765190
N        -1.77207559535194   11.58219019375889    6.67709416101710
C        -2.56905389969215   12.37879501483634    7.47393161248119
H        -1.94919088607460   12.87990488937267    8.21939972647142
H        -3.31448177044653   11.75873115221377    7.97502411137231
H        -3.07027983826950   13.12419675167779    6.85402823480708

