65
CSD_code = LUVJUH | q = 0 | S = 0 | Stoichiometry = C25H35CoNP3 | MND = 4
Co        1.76427572466589    4.07078350790573    3.50338968746278
P         1.37932366033818    2.76969927149794    1.75379839120965
P         1.96273523780355    6.02495023144839    2.56217311786650
P         0.19486354592261    4.42803027865988    5.04580289597546
N         2.47618216735398    2.53941413749563    4.29995558482452
C         2.94432921835974    2.63955431958723    5.66192785788256
H         2.37189296724008    2.00591371290401    6.35563886193557
H         2.86907074920931    3.67691368194456    5.99361221576623
H         3.99954489979488    2.34726590228180    5.72963322595974
C         2.03976370953630    1.22279667396206    2.37640692957561
C         2.10246347007499    0.03591393554920    1.66684575308488
H         1.76263916076433    0.01178290639621    0.63898204689348
C         2.59436248117675   -1.10517051632064    2.27352684335723
H         2.64860396960313   -2.03668869735065    1.73019847794695
C         3.01433273331054   -1.03622777061852    3.59814079827767
H         3.39168425816115   -1.92881090339597    4.07996431515770
C         2.96647012520422    0.13798470590123    4.31365599508313
H         3.31429812070332    0.14216384266124    5.33577060374099
C         2.48838844719527    1.32900855280806    3.72018286665038
C         1.83397237434123    2.71339442400007   -0.01262613359152
C         3.20419581301084    2.77055376454442   -0.26392624969136
H         3.88343477953753    2.80798439093931    0.57937048100821
C         3.68433872705223    2.76139289855390   -1.55791016479485
H         4.74851170654366    2.79838379253723   -1.74317170979842
C         2.79600947000729    2.70545017889088   -2.62158927298234
H         3.16629515553555    2.70092026301310   -3.63647324316426
C         1.43384176927723    2.65145658565465   -2.38016628670464
H         0.74137484315576    2.60024005506084   -3.20873460349510
C         0.94989329429622    2.65703807419249   -1.08279320692254
H        -0.11479247082799    2.60234250322922   -0.90561408647966
C        -0.42637077753309    2.49508508963133    1.70651872710187
C        -1.25096715491208    3.49213450313522    1.18803454661650
H        -0.80248057501269    4.38851189142565    0.78313314990975
C        -2.62515944986290    3.34291582655203    1.19392683524232
H        -3.25513387774435    4.11966584406346    0.78269304645110
C        -3.19638605880688    2.20098004741218    1.73348275137692
H        -4.27040560868389    2.08466886293448    1.74146738557063
C        -2.38505765071570    1.21254931492268    2.26500280493349
H        -2.82755805888339    0.32294885594322    2.69058261818839
C        -1.00843659308164    1.35657513124117    2.25332164838535
H        -0.37688128462232    0.58450494826995    2.66963984577662
C         2.08236922500629    7.53398498144523    3.61340878180415
H         2.80615524294902    7.35021946758893    4.40604136918068
H         1.11632475531849    7.74141607312088    4.07002584029994
H         2.39771720275570    8.39631666161459    3.02696406943694
C         3.60262281426906    6.10200713769967    1.73581306423363
H         3.61527316372916    5.37901485770240    0.92139736220403
H         4.37451066080134    5.82862953447172    2.45386707449469
H         3.80198534820772    7.09969341364550    1.34489387349883
C         0.92601001587327    6.68019914165293    1.19047513815038
H         1.30386940462992    7.64394799331653    0.85037348092164
H        -0.10388316017790    6.79125599077126    1.52398715097261
H         0.95716049350375    5.96884331064702    0.36628582754388
C        -1.25515527111612    5.33803241448570    4.36970914587355
H        -1.59677458414491    4.82321892807709    3.47367735056854
H        -0.95952866548272    6.34949699685539    4.09900247627688
H        -2.06354926153882    5.37800930361078    5.09870870770502
C         0.37539182823530    5.31437206447904    6.65379996872257
H        -0.58782998110478    5.39805274985158    7.15532107407775
H         0.77935306828293    6.30920493862028    6.47577247688258
H         1.06681920520707    4.76837102686991    7.29223825644416
C        -0.67386685580516    2.91915195726530    5.62669467238840
H        -1.52503492254010    3.17849031983391    6.25588767517076
H         0.01595095362605    2.29214922947954    6.18565749952452
H        -1.01445369899853    2.36404648739941    4.75442231196702

