64
CSD_code = LUVKES | q = 0 | S = 0 | Stoichiometry = C25H33CoNOP3 | MND = 5
C         8.62644332490814   12.82552969301295    4.84581982345737
C         5.73798485086329   10.28562629149308    7.06037546307641
C         6.36473756721772    9.21807716504967    6.36776251236030
C         5.81401731631668    7.92923457630335    6.54469201960921
H         6.27988867760474    7.08704259800438    6.04593559665082
C         4.69597761933410    7.74331531162068    7.32091517667446
H         4.28852134867597    6.74741178549862    7.43346007754208
C         4.07166299920278    8.81345096001002    7.95792470685483
H         3.18621410640043    8.64875969399825    8.55335396250409
C         4.59960934498773   10.08351673078299    7.82487824668450
H         4.13038445837514   10.92525204018290    8.31692630759235
C         5.24598704893274   13.06849088566701    6.64699936512040
C         4.88380928020898   13.43637344697634    5.35634503614935
H         5.45227586328839   13.03089050209811    4.52739303254753
C         3.83678451201792   14.31229209121151    5.14235875692267
H         3.56177070736722   14.59662418731321    4.13635978351390
C         3.14322323091862   14.83176075247173    6.22363793171718
H         2.32468309880582   15.51808423906445    6.06197069311477
C         3.50505781843147   14.47746277522194    7.51322939471325
H         2.96731978863265   14.88877005259864    8.35577081562050
C         4.55266346678099   13.60043031184362    7.72924364150954
H         4.84077889648569   13.33703643536283    8.73769308052118
C         7.21862919902824   11.42061860377486    9.55230192196456
H         6.77519253064931   10.44076393683610    9.43861048668652
C         7.78254640282300   11.79935765828350   10.75863242171643
H         7.77690292046671   11.11241262290916   11.59327286938182
C         8.35372868246827   13.05315769959805   10.89833274402640
H         8.79348727352556   13.34508450620769   11.84103510455797
C         8.36500145846450   13.93274700025036    9.82576621151225
H         8.81588651577694   14.90910097247677    9.93304606463169
C         7.80429047675822   13.55790514231537    8.62073100928979
H         7.81384445434921   14.23167600317049    7.77319394447429
C         7.21498625247946   12.30311354806819    8.47867249769286
C        11.32482997603098   11.67771424352195    6.50671718144349
H        11.65068790436483   12.17108883390527    5.59267793588427
H        12.17063945009697   11.17259204312550    6.97259931108597
H        10.93056697028066   12.43291413815486    7.18552074292824
C         9.81412813889299    9.66546181274582    7.73736097458866
H         9.09551642184319    8.85248488544940    7.65911812790560
H         9.43873873763848   10.38963399679649    8.45900026764647
H        10.77828639856090    9.27936739753438    8.06815763103312
C        10.93625685262196    9.21974408626902    5.19350810519123
H        10.30654062402090    8.35005558506805    5.01800851348307
H        11.81728563473401    8.92228655604259    5.76175160877379
H        11.24145362526977    9.63078176611630    4.23265409240279
C         7.98710357385080    9.45763590135869    2.24266426437042
H         9.01713140277028    9.74939107094270    2.04481883779295
H         7.46498158758569    9.29346111060494    1.30025860582929
H         7.98814176188040    8.53632098417891    2.82034193473171
C         5.43869014825984   10.16509242072914    3.18181737023201
H         4.77525649697386   10.90926582064278    3.61836446670886
H         5.37515397629010    9.26069229284308    3.78300663343709
H         5.13097572728728    9.95186950824215    2.15807073710304
C         7.05909685870304   12.07132677883307    1.88836471125545
H         6.46797526677527   12.91244530601050    2.24644180102577
H         6.60606697322861   11.66927914923880    0.98237759911206
H         8.06264726395574   12.43052686061130    1.66606802897710
N         7.41733632489884    9.47438180167606    5.58727085790216
H         7.81647326830105    8.63935551865764    5.16865557277165
P         6.59041900909505   11.85212251606317    6.82619289635796
P         9.97942452965974   10.49277549358160    6.11144479818238
P         7.16320652265719   10.78915845527767    3.20461298327618
O         9.00388247493178   13.88898481540322    4.60511905312239
Co        8.05601460599467   11.23991863068926    5.21789365506258

