49
CSD_code = LUVLOF | q = 0 | S = 0 | Stoichiometry = C21H18ClN2O4ReS2 | MND = 6
Re        1.46258734699616    4.06297871814565    2.87702322469407
C         1.82281100341159    5.34506273992387    1.45342341718664
O         1.88109481505064    6.14364016729450    0.63965985922322
C         3.33485005756132    3.89685729504236    3.33004758598844
O         4.47283585281769    3.83825564478708    3.53333680318173
C         1.48038699352228    2.59142144076560    1.59798846075872
O         1.34022542764896    1.73216428791985    0.85840381675181
Cl       -0.82594019497838    4.32960142041195    2.27157573397441
N         0.90592001810890    5.57897532243937    4.38294279707935
N         0.51525751823234    2.92993490461446    4.54682004846436
C         1.26510081662865    6.84729772807512    4.51699933366362
C         0.42042029395413    7.79224326989227    5.12215568882470
H         0.74385159588533    8.82001905462604    5.16682233354057
C        -0.78359725347674    7.39923493921003    5.64522557228236
H        -1.46407291485940    8.11371739489122    6.08327623672439
C        -1.10340904386581    6.03103249264556    5.66121893791302
C        -2.25299706302608    5.50266129369803    6.31157245487103
H        -2.95344592656167    6.19780166605928    6.74954416550692
C        -2.44652854444197    4.16507811979580    6.40311689236640
H        -3.30670488556669    3.76117589392967    6.91569459949678
C        -1.50942654650037    3.24865730501807    5.84925578930503
C        -1.60492794432533    1.85689109404104    6.01499122600245
H        -2.44551496761448    1.43674676435887    6.54635877598953
C        -0.60329415294387    1.06142157558533    5.52582200691386
H        -0.60589447211975   -0.00565114854847    5.68204899505359
C         0.45570266865234    1.63002077771729    4.79796650082385
C        -0.41767915883964    3.73868835324579    5.10611419930661
C        -0.21408768325246    5.15341569326072    5.01179952278680
S         3.57356138342976    7.55101094365337    5.71775672335257
S         2.55463403241025    0.30438226280959    5.88908249191589
O         3.52362863153966    3.92729249240500    7.45676780852002
C         2.65199906243061    7.25141366457589    4.14919379245946
H         2.67466965277098    8.20798503326390    3.63014983541118
H         3.18052849367400    6.49452451860548    3.56993179851744
C         4.13685437947682    5.90076453840060    6.23399370126786
H         4.73383494686906    5.46736035473783    5.43282711049426
H         4.77889794699738    6.09635350995828    7.09286484734128
C         3.00576856426762    4.97052078354744    6.65491803001735
H         2.25510310886096    5.53614215667038    7.23225578619295
H         2.52448046665258    4.55579046271174    5.76342216595899
C         2.86285726542861    2.68762550837506    7.32947456465419
H         1.78591477970276    2.83217886421728    7.16316840337734
H         2.99375369672709    2.17391270066310    8.28591194795233
C         3.47050181638659    1.84463291714285    6.20683784077129
H         4.48498458207693    1.55271471517159    6.47559506848929
H         3.49843539644359    2.39940185535744    5.27226077690975
C         1.58627465817353    0.75078379276731    4.38917950726501
H         2.26004480027279    1.22716353595569    3.67518969841437
H         1.23294867931073   -0.20039881983537    3.99491312204327

