48
CSD_code = LUVLIY | q = 0 | S = 0 | Stoichiometry = C15H26Cl2N4Pd | MND = 4
Pd       -1.46920262400387    2.19775068207593    7.23423782628004
Cl       -2.31299323369004    3.61834502120357    5.71832975238474
Cl       -3.49965067688922    1.67848364263886    8.01338325278203
N        -0.55172500230559    0.58091205615441    8.26843733161854
N         0.48199260060854    2.61018551396467    6.69289926097972
N         0.57886474950000    4.93214555633268    6.68628672396155
N         1.94479668910766    3.87130398283578    5.28184434698830
C         0.90111620438888    0.70428204730537    8.04624231160357
H         1.26391369389690    1.41693666577437    8.79696420627576
C         1.57572518497461   -0.65573913843119    8.26899321981349
H         2.52501792297270   -0.52180287800984    8.78859551478521
H         1.77979509874744   -1.15157875582741    7.31722538907909
C         0.61550268711070   -1.51497498037571    9.09770367655160
H         1.12620714701438   -2.41095036988809    9.46133848537759
C        -0.56348875367761   -1.89395364846460    8.20362794862600
H        -1.33311611164611   -2.39170480855098    8.79500644323872
H        -0.23993376765702   -2.58980284071115    7.42795394466549
C        -1.10632858483213   -0.59585535543840    7.57943741279585
H        -0.85043904334462   -0.53395295874649    6.51404054653187
H        -2.19763340818264   -0.54591928935723    7.66788123575119
C        -0.79457396252230    0.43904102121993    9.70350487945124
H        -1.85752743449863    0.22799289287437    9.83863736813252
H        -0.58902520398512    1.39732758340625   10.18577109816373
C         0.07971843372802   -0.69060999733859   10.28706980836842
H        -0.55076157762404   -1.35199875206530   10.89438780166041
C         1.22351033888369   -0.27275123547888   11.17025646324942
H         1.84513104957934   -1.11099302444416   11.46533750955195
C         1.53269781248849    0.92969603255836   11.61688159355360
H         0.96670428541508    1.81719703991260   11.38938642123609
H         2.38321771409313    1.08028426470712   12.25974719957464
C         1.17992579496449    1.34483448868421    6.67418820180350
H         2.26178449723111    1.48221045447324    6.54914871960882
H         0.81916266384860    0.68648517637253    5.87100031357232
C         0.94393839654424    3.72011036811047    6.21656751349962
C         1.10549507385762    5.99684793295998    5.86513849055866
H         1.49380064270813    6.80293161918240    6.49259362338075
H         0.32130744934165    6.40506313801349    5.21450226081470
C         2.21065749364484    5.28692726084743    5.07374353689163
H         2.18240594797185    5.53673224559310    4.01083014703835
H         3.20674326378611    5.53231249450384    5.46033238883506
C        -0.40505016039335    5.22340296371177    7.69231577878543
H        -0.68878045274966    4.29222135575923    8.21597257732446
H        -1.30600173212574    5.64643195866628    7.23709706805253
H         0.01433991290450    5.93426120729115    8.40944355869664
C         2.09131151245824    2.96229811123330    4.16894300152770
H         3.06927056952574    2.47369551088888    4.19039856129740
H         1.99568440076661    3.50430572891413    3.22555580280247
H         1.30909249806464    2.20763201495615    4.19871948247875

