48
CSD_code = LUVLAQ | q = 0 | S = 0 | Stoichiometry = C15H26Br2N4Ni | MND = 4
Br        5.79703520229589   12.82933689093079   10.51885573487029
Br        8.84451370481736   12.41715941098620    9.24877712680369
Ni        6.76679646436209   11.61801749677603    8.99879582409805
N         6.65887460503366    9.57985198637302   10.03116564398606
N         7.12951903612686   10.52220554573266    7.39090997804422
N         6.92236050401813   12.22875357640189    5.80804040123303
N         7.53594925945180   10.22545614279304    5.03056880594480
C         7.71581906125095    8.95515244506790    9.21639934673361
H         8.64142930316709    9.49374315411466    9.45359934215559
C         7.87162192811666    7.46974733151220    9.58508337082126
H         7.46775831988360    6.82946000807216    8.79591728229853
H         8.92307690871119    7.21296306001577    9.71271011285576
C         7.09540627389902    7.21819519952169   10.87871317663145
H         7.28831421095860    6.20462413411549   11.24147895067184
C         5.60576871408052    7.40605100559648   10.58643453766081
H         5.26172414802583    6.63787387125771    9.89091797190477
H         5.03179068952460    7.29892366849668   11.50802684267372
C         5.41552497069872    8.81053223520510    9.98319406718649
H         5.08216143286462    8.74655578452035    8.94484121131782
H         4.65718455007186    9.37217331916930   10.53542333105808
C         7.12074748737363    9.64097168902926   11.42331454608246
H         6.31953853744352   10.07675124270169   12.02401552027888
H         7.97942654576364   10.31863261023254   11.47666849457108
C         7.50325506304962    8.24195989616222   11.95549357570385
H         6.92900817318270    8.02052448384710   12.86077632263722
C         8.96080909730015    8.14494029284947   12.29133564861804
H         9.64494312746533    8.59472022827675   11.58435404157227
C         9.42753581029119    7.55790924360086   13.37722310176438
H         8.77249293649952    7.10827499539641   14.10606099125714
H        10.48159403394718    7.50198149817892   13.58787016525718
C         7.45796811310454    9.14427245363579    7.71463013582626
H         8.37416504224990    8.84133910237803    7.19349809246181
H         6.63481000884273    8.48619786353667    7.40498491683074
C         7.18481508240315   10.94138075653630    6.16696793220444
C         7.41072853170108   12.50374952590865    4.47734500062849
H         8.39899196997093   12.98085959830330    4.52045159621227
H         6.72413846386251   13.16795574540892    3.94683352107499
C         7.48032511097579   11.10935407793808    3.87124859274927
H         6.58578733134921   10.89445585725081    3.27110705922778
H         8.36445506010017   10.95748806339203    3.24845871087616
C         6.69585778175373   13.34946955368377    6.67948955614495
H         6.12450033585416   13.02661021780634    7.57071484182080
H         6.08772488244929   14.08099359902713    6.14431798913551
H         7.63025109783345   13.82766354171464    6.99483394917525
C         7.11219500820713    8.87571578457485    4.71867078307758
H         7.51655566243978    8.14719182345860    5.41315312246481
H         7.49870824685077    8.63649356923060    3.72859790345624
H         6.01914217037621    8.78446641927576    4.69443082994252

