57
CSD_code = LUVLIZ | q = 1 | S = 0 | Stoichiometry = C24H22N4O4ReS2(1+) | MND = 6
Re        5.04133447635220   15.77906171207489    6.31125596228286
C         6.28084779657415   14.27233396019724    6.22087800053682
O         6.97655450123775   13.36690173896159    6.23109522982445
C         4.93781633029557   15.81230602500310    4.36480066869659
O         4.98151768808627   15.82121667512757    3.22294608638413
C         6.55363069588504   17.01750033627167    6.26262767745624
O         7.41330267541768   17.76606787241256    6.30038034718117
N         3.22521614376893   14.60381612309855    6.73418544651402
N         3.49063674517828   17.27741943560346    6.76028343116397
S         2.21651863837805   12.27529650818595    4.13712405706517
S         2.96950558959124   19.81999917783752    4.22391645843750
O         2.14448346556756   16.10554391583047    3.05278767167910
C         2.93660065725931   13.32788010922254    6.51041718645579
C         1.96112365214528   12.65020398889718    7.26771198568709
H         1.78337285669134   11.60800800807387    7.05700867093458
C         1.25232314808577   13.31272211958334    8.23178104101493
H         0.52045691661947   12.80346424611127    8.83926411730270
C         1.44465939554961   14.69992498441600    8.38608332922223
C         0.66591081850164   15.50214208248448    9.26309780425964
H        -0.06098575375278   15.01078828065231    9.89101501122381
C         0.80388315366777   16.85189587602676    9.28008854793353
H         0.19042873570443   17.46400422190893    9.92269863986495
C         1.72935302974935   17.50189281665676    8.41995586395516
C         1.82123629966675   18.90272655020991    8.30105696004836
H         1.20959632165990   19.53391344525656    8.92660049976759
C         2.64803969471138   19.43215813653510    7.34892903100114
H         2.68634143008447   20.49392077820136    7.16634310207334
C         3.46482757775186   18.59023706333096    6.56879942013053
C         2.58500150905834   16.72874886590451    7.61190518736952
C         2.44204453723297   15.30426605920076    7.59660431446854
C         3.55777592214209   12.61096911282669    5.36321811759094
H         3.92866702044510   11.62867246541535    5.65114586809511
H         4.34339968756710   13.18451327400267    4.87180382765774
C         2.27972833718439   13.74049974875986    3.06900612491423
H         3.32283238209194   13.96578981541092    2.85330231007842
H         1.79091264926351   13.43844281940268    2.14422516499557
C         1.59747201668487   14.96522894823038    3.66964481517259
H         0.50858331506331   14.91862829541850    3.52444243541538
H         1.78620702724425   15.01130682570370    4.75384069078266
C         1.83023608717592   17.31739884079180    3.69561219694673
H         2.00331826506884   17.21125193787349    4.77818448842687
H         0.77201312426341   17.57968905876545    3.55334089614373
C         2.74114745470096   18.39738519957735    3.12096595791544
H         2.32161338205247   18.81264110281041    2.20612642741647
H         3.71891165019826   17.97531028198321    2.89462937947248
C         4.21696851377687   19.19520461976244    5.43569046593272
H         4.87250681048543   18.48835914752399    4.92725173426919
H         4.77652421443850   20.07652786222818    5.74489221874960
N         5.19942192547445   15.75246146755837    8.53695850907490
N         5.38419198627540   15.05973020738735   10.60260268890051
H         5.46938842665104   14.44104944398855   11.39411672197506
C         5.30894166964778   16.83975583581543    9.35300443942959
H         5.31040392084010   17.84149099342450    8.96952962868182
C         5.42488304083879   16.42041508520535   10.64409310060123
H         5.53276376288740   16.97088058955504   11.55455637588960
C         5.25067499021230   14.69560042705798    9.31797748477252
H         5.20123369060896   13.67543548024383    8.98749618076292

