69
CSD_code = LUVVOP | q = 0 | S = 0 | Stoichiometry = C41H20CuF5N2 | MND = 4
C         9.32539774704086    2.56787432732239    0.80291701940567
C        10.61331161599002    2.52314395154282    1.37413811282095
H        11.34508604818516    3.25123234750730    1.05953774105855
C        10.94968120638356    1.57938825643696    2.31210336220326
H        11.94492584865780    1.55710095655644    2.73071564381417
C         9.99618808819437    0.66411267321655    2.71920126207163
H        10.24883248124009   -0.07926367042201    3.45887821346151
C         8.71204330086387    0.71532310919496    2.19005762789338
C         8.34171601975850    1.65954187422150    1.22263718112131
C         7.63054612213652   -0.15569630375380    2.60375098316965
C         7.76658175178635   -1.17369661807871    3.53982138313611
H         8.72839092698185   -1.37796781054833    3.98342334893362
C         6.66880571373231   -1.93358592683164    3.90054744837347
H         6.76811164323311   -2.73420885505535    4.61840474083358
C         5.44812748544213   -1.65334508737351    3.33949472102964
H         4.58472470456529   -2.24012286201927    3.61327375105167
C         5.29141852419522   -0.61963404292131    2.39384427407949
C         6.40314156431809    0.13520487019578    1.99216789925904
C         3.97860269162729   -0.41353343562310    1.85069969790414
C         2.83764450189642   -1.17672581337698    2.39963567465254
C         2.35650909502116   -0.88392592989724    3.67273770559074
H         2.83127494971622   -0.10378932409466    4.25008541345558
C         1.27725514170363   -1.57813700170625    4.18779090556944
H         0.90750726490858   -1.33895657505955    5.17397506649687
C         0.67241709891357   -2.57712750073787    3.44289411398987
H        -0.16876243486186   -3.12005838651779    3.84729828042676
C         1.14970276426405   -2.87768281888290    2.17817418665996
H         0.68291667194184   -3.65772420174522    1.59480860050932
C         2.22434653995108   -2.17996722832119    1.65627953225844
H         2.60195294096077   -2.41463586480336    0.67139631660420
C         3.72974497459969    0.46213454942671    0.82958461490448
C         2.44255408007278    0.62634584711150    0.20512578532670
H         1.55182355901684    0.10701886702218    0.49835475239948
C         2.59656498664712    1.51934848090510   -0.79143861046225
H         1.85574676601149    1.86368494288081   -1.48612637526348
C         3.96982011827386    1.95040427945134   -0.75978978132569
C         4.50915009180155    2.89875568399046   -1.62769146649562
C         3.64558489295252    3.48273127488624   -2.67191944929200
C         2.52785160679181    4.25443475642557   -2.35507753587976
C         1.71106249680601    4.80162229160222   -3.33776689086186
C         2.00787151266609    4.58859362436007   -4.68058101160977
C         3.12236021655172    3.82891006358916   -5.02441369415497
C         3.92237573366277    3.28754067258689   -4.02540302842764
C         5.82635547652085    3.34551384979579   -1.53256615098802
C         6.36804072389840    4.41225652138728   -2.33405890020315
H         5.83690425441709    4.93414233918018   -3.10618141861749
C         7.62945411175518    4.61978417851363   -1.90966906560964
H         8.34493970383368    5.33114057049885   -2.27238947061237
C         7.87871694478350    3.67997685940330   -0.84733013134299
C         9.07678487097196    3.56564101294823   -0.19781688933308
C        10.14907075791934    4.51189339657502   -0.57710003277884
C        10.08466585637716    5.83807918055986   -0.16241290594088
H         9.25294614927676    6.16132270995001    0.44682642492811
C        11.07813113685519    6.73108618459768   -0.52193855164607
H        11.02118671477559    7.75777153150735   -0.19137223895478
C        12.14056757346812    6.31140780899441   -1.30464956234626
H        12.91446898400077    7.00978817684554   -1.58626621229403
C        12.20768657162444    4.99348919893816   -1.72566888326568
H        13.03304652529362    4.66268337090652   -2.33872469019966
C        11.21995206761211    4.09602342970659   -1.36241255341250
H        11.26742968827979    3.06773356083720   -1.69073836419446
N         4.64072983806139    1.29801277944565    0.21449337641526
N         6.74654581446708    2.91736556784086   -0.64233555174369
F         2.23738672270259    4.49751171290870   -1.07205247296829
F         0.64876632959238    5.53776290621274   -2.99910026547135
F         1.23094420018526    5.11038883397072   -5.63193881041507
F         3.41246189417075    3.61753829863932   -6.31129280225335
F         4.97760671327019    2.54573234048860   -4.37898832091441
Cu        6.47510132128297    1.54799123668838    0.64173692747101

