113
CSD_code = LUVZOS | q = 0 | S = 0 | Stoichiometry = C42H63N4NbO3 | MND = 5
Nb       21.96513615164890   15.74677308556366   19.55384897766229
N        20.82941979935239   16.92697284189713   18.37111709798881
N        23.80158137009935   16.16529039951288   18.88091765997999
N        21.89316293006950   16.76980035493110   21.35214474046780
N        22.76117486544722   14.04520660041482   20.41968242541025
O        21.28845847310580   14.01181800697791   17.95795176884138
O        20.10975345860430   14.33532182503438   19.75039252851235
O        23.20557330865719   11.73706530598970   20.54304352478879
C        21.47975003410414   17.32846651384981   17.17832864197360
C        22.09353705877133   18.58080005347180   17.09878967014780
H        22.08560823867811   19.21794445426948   17.97023502719857
C        22.69889064061698   19.01442915786777   15.92992166264815
C        22.68412100586985   18.18640764199912   14.81331083848712
H        23.15073794364173   18.52098627973089   13.89746612361691
C        22.08440909925127   16.93661579439629   14.86234935916510
C        21.48201343945694   16.51787755262299   16.04247573871272
H        21.02197236689692   15.54050315109249   16.08697381095704
C        23.35988158363489   20.35996864413116   15.85916830451013
H        24.39710573073356   20.25620486704593   15.54242080491690
H        23.33886148213271   20.85801227134836   16.82552329526270
H        22.85361706608961   20.99335902111070   15.13120737691382
C        22.10911017984688   16.02956484049944   13.66861625009514
H        22.15811396885980   16.60175165700178   12.74494468970164
H        21.22768679606597   15.39306122962022   13.64576930298329
H        22.98687894009434   15.38398956008323   13.71405347504268
C        19.37997592868370   17.19745672138590   18.30756726175962
C        18.67309161859068   16.25686617162696   17.30856031569402
H        18.90229785721931   16.53635373231383   16.28258479745389
H        17.59554302231416   16.32000981593722   17.44819920103691
H        18.98347079399743   15.22870460109860   17.47420076745394
C        19.07524624961124   18.64051546038046   17.85166199719835
H        19.44895009800861   19.37237847803618   18.56214273470547
H        17.99723423817308   18.76514873231205   17.77376768653661
H        19.51217180749583   18.84614820723130   16.87713843626367
C        18.74244754584110   16.99130998994772   19.68857649171952
H        18.73960634063677   15.93470507716941   19.94365161467463
H        17.71141544463702   17.34204809890277   19.66861398080436
H        19.28002231579784   17.54344078424471   20.45858620272834
C        24.53022648023215   17.09986380539148   19.66275574634142
C        24.72533468406335   18.41174268003116   19.24106755018084
H        24.23788037571297   18.75429784058870   18.34252955710602
C        25.56235528784986   19.27320549263099   19.93956919247022
C        26.22625340690076   18.80744995359297   21.06261791914078
H        26.90772583874075   19.45864052130546   21.59085914331698
C        26.02227191415651   17.51336809373357   21.52664280498758
C        25.16398218992934   16.67534314058349   20.83340986568811
H        24.99198594419020   15.66588187336474   21.18103314526984
C        25.73925504699845   20.68340295077505   19.46294926094360
H        24.83592154008430   21.25479156668620   19.67458135051164
H        25.90991773765862   20.70932470988138   18.38844374806195
H        26.57619184524426   21.16356987458009   19.96359451014250
C        26.75308880534253   17.01791509848207   22.73986164249733
H        26.85121359201435   17.80486257743690   23.48487703747944
H        27.75796395384155   16.69729056767335   22.46328528261714
H        26.24052993730756   16.16791788251484   23.18339795286207
C        24.70707112741797   15.48926922865098   17.92903586403732
C        25.31057652712453   16.49648356685890   16.93308754755772
H        24.51900202769679   17.03918993266981   16.42271673909880
H        25.89999671250117   15.96232993272888   16.19159901057168
H        25.96100424666710   17.20584006146878   17.43879918990578
C        25.85732087186632   14.77338758812121   18.66504561940107
H        26.52458347550533   15.48040221641033   19.15127052613385
H        26.43526561526102   14.19643934959877   17.94692093984616
H        25.45303138652290   14.08991875640243   19.40906060636449
C        23.95977980515660   14.42312341512409   17.12938934124099
H        23.57917489934261   13.64491287482898   17.78871097797656
H        24.64181129464339   13.96321975731040   16.41577806276302
H        23.13145619056993   14.86366366985043   16.58313034128832
C        22.27283221882207   18.12372575956827   21.41931743582825
C        23.21806401309136   18.60573736398709   22.33675152786394
H        23.74496568358747   17.92281788739980   22.97924260703032
C        23.52099822022011   19.95135497337388   22.44145637798470
C        22.88176009150468   20.86483479991224   21.61500204605651
H        23.10344338237426   21.91858465313528   21.70974654710974
C        21.95514209827975   20.42905258662024   20.68250289768212
C        21.66736133411098   19.07370444572275   20.59324929260768
H        20.92799404126185   18.73951804964713   19.88547182256831
C        24.50331969150449   20.43648275072250   23.46584999952799
H        25.21680315652856   21.12359232223110   23.01580231799446
H        25.04526107837903   19.60671507852607   23.91072134405255
H        23.98162389455133   20.97158628619145   24.25987465001375
C        21.23210716416528   21.41716571729552   19.81127968481543
H        21.62948616764429   22.41943461729851   19.95320583398570
H        20.17117357461616   21.43448291673251   20.06060099440022
H        21.32054231808976   21.15752456266204   18.75736439394620
C        21.57081075347096   16.16679930149588   22.66951104159876
C        20.48014076394825   15.09740433751522   22.49823672694773
H        19.60226910764332   15.51901415574260   22.01374692412825
H        20.18474412191879   14.72257772172957   23.47708656487644
H        20.84457955174238   14.25572001026380   21.91331199985033
C        20.98278685156913   17.20714030540863   23.64453720869160
H        20.18120795819391   17.76082297362917   23.15909864868918
H        21.72184416665478   17.91877734063892   23.99685216646206
H        20.57161757851449   16.69344940832397   24.51029214434459
C        22.77854861141675   15.45919628238803   23.31288502761694
H        22.44656863519119   14.90682852478042   24.18964680128937
H        23.55122761982457   16.15261875425553   23.62838761664667
H        23.20488627175486   14.75550326669404   22.60057879115363
C        20.35173972856780   13.68126299925771   18.70914173772480
C        19.50157263710770   12.44713816217508   18.38544059961482
C        18.07463974156336   12.63986125846408   18.89921295406314
H        17.56918298946039   13.43571544771145   18.35545195556480
H        18.08979347332869   12.90069762589142   19.95495394673727
H        17.50689198877608   11.72026021888547   18.77211430210900
C        19.51332630764588   12.18349373540738   16.88048296299304
H        19.01444116656955   11.24156541573462   16.66208956484920
H        20.53786821730479   12.13313622689448   16.51939000443891
H        18.99895790012768   12.97932665090201   16.34412887019626
C        20.16568067978291   11.28082046182302   19.12801362825648
H        19.60970359605001   10.36151343533328   18.95111125384457
H        20.18586154618303   11.47463702427032   20.19899340657681
H        21.18862657707783   11.13971878783376   18.78580944253112
C        22.95880137659422   12.88085943520805   20.45572887505205

