74
CSD_code = LUWBUA | q = 0 | S = 0 | Stoichiometry = C36H30As2Br3O2Re | MND = 6
Re        4.57998516367344    1.75620750390847    1.44134679210838
Br        6.91064556628044    0.83622409529676    1.52891421076719
Br        5.07811410725883    2.87481399982787   -0.68597349301670
Br        2.18535524514677    2.23633984742528    1.09201521930177
O         4.21117406501246   -0.05905990469580    0.29751227738652
O         4.90535053848402    2.92952964360964    2.55763703575611
As        5.09942406695702   -1.00689587708031   -0.73888665906705
As        3.80304825173796    0.25407790723579    3.30516356049166
C         3.72354597890723   -1.99184344414674   -1.68087657376320
C         2.43354506090064   -1.48216818700458   -1.72885805166215
H         2.21864093987576   -0.53294063333156   -1.24747988982263
C         1.43675699868124   -2.18228424867518   -2.38726941780856
H         0.43358614123435   -1.78363162977976   -2.42549087311548
C         1.73224939519037   -3.38941888885326   -2.99825779189798
H         0.95613913941651   -3.93788446694793   -3.51111007174188
C         3.02215582941762   -3.89697793741631   -2.95765663368709
H         3.24880901815218   -4.83703754738001   -3.43881933081802
C         4.02005718190944   -3.19951335297917   -2.30027001350066
H         5.03571183436159   -3.58257237902472   -2.25871608276770
C         6.10655047569277   -0.04006741110716   -2.09626778448925
C         7.42984018358417    0.35184929921371   -1.96450883527378
H         7.99057058307423    0.12140425041149   -1.06823484343621
C         8.01727895437825    1.09886671855762   -2.97219791414758
H         9.04299616992500    1.41779830545926   -2.86523850921799
C         7.29141650263133    1.45450110390841   -4.09556796795794
H         7.75204053534579    2.05068485258816   -4.86858366001336
C         5.96896401583868    1.06240857925092   -4.22248931394992
H         5.39558010636921    1.35143020791522   -5.09029261495602
C         5.37501022833822    0.31273454694374   -3.22440785176856
H         4.33179487818022    0.01735782211405   -3.30478409223587
C         6.02670909804612   -2.38317467769232    0.28578519764076
C         5.18620476253722   -3.27596991637120    0.94054288666648
H         4.10996813911443   -3.18320030862134    0.81634976993939
C         5.71919903798246   -4.26914307402790    1.74354095619705
H         5.06171008305475   -4.95696444357401    2.25413949626799
C         7.09326191867335   -4.37124421131274    1.88986147949280
H         7.51137400994473   -5.14149771808987    2.52074564550743
C         7.93001298219069   -3.48691284661987    1.22923845072517
H         9.00036783185025   -3.56606301756080    1.34382144458132
C         7.40220597787639   -2.49008227179324    0.42473953136255
H         8.05832646471809   -1.79146610811162   -0.07451666342425
C         2.88853419021705   -1.41286608099109    2.87257621050762
C         1.92898314509011   -1.41977369134026    1.86453861612362
H         1.68599564554773   -0.50143914871699    1.34226214120747
C         1.27661826362575   -2.59423785999924    1.52947116950422
H         0.54461732208723   -2.59348691808776    0.73526632344607
C         1.55929536619789   -3.76452727214194    2.21460087698366
H         1.05097251675413   -4.68083395135820    1.95295786465303
C         2.48710964294675   -3.75559765912981    3.24350821315218
H         2.69188348187511   -4.66145386763472    3.79599115341542
C         3.15719146880108   -2.58825169640229    3.56831523308522
H         3.88983440494223   -2.58568487540478    4.36868308531792
C         5.19968441760705   -0.30628617702402    4.53330890602712
C         5.36867813795243    0.32672144218290    5.75989115488797
H         4.66441021631333    1.09284150337860    6.06850478533960
C         6.43185625021211   -0.01864375136117    6.57664928070050
H         6.55823261551748    0.47520240358772    7.52894722767883
C         7.33721427117100   -0.98439018524550    6.16944545979602
H         8.17042474034092   -1.24386235389445    6.80532480185735
C         7.18317266709649   -1.60744465025787    4.94156935574677
H         7.89561380776348   -2.34891076924268    4.61190503063812
C         6.12172093439035   -1.26753404836758    4.12387652600921
H         6.01034864018796   -1.74075509191889    3.15257976170430
C         2.52112221402762    1.13177461331868    4.47223151164472
C         1.56387216841096    0.39758948309476    5.16360921422197
H         1.51914771804565   -0.68014059970038    5.03758116848548
C         0.67089597252783    1.04498641337296    5.99979240447778
H        -0.07624518325336    0.47401513098384    6.53145308249709
C         0.72944898357302    2.42097356426928    6.14871880070885
H         0.02563072703128    2.92284150991983    6.79582041472704
C         1.68251617090889    3.15547714373532    5.46278344430856
H         1.72492728171482    4.22875113935745    5.57229001690190
C         2.57560009288731    2.51166485326041    4.62488584924069
H         3.31671424555803    3.08536726638904    4.07086189441025

