89
CSD_code = LUWBEM | q = 1 | S = 0 | Stoichiometry = C42H35N2O5P3ReS(1+) | MND = 6
C         0.21022870492183    2.79963002940344    9.01287084659364
C        -0.09775486350351    5.19094966019304   10.29312873455197
C        -2.03221587146055    3.07755799698140   10.65046660365797
C         1.98526630184492    0.43465112079028   11.94267053918561
H         1.99457779394003   -0.51500401597234   12.48771679317866
H         2.53496321787245    1.20245136288203   12.50238238705550
C        -0.40154614053144    0.86553190000289   13.43064781457168
C         0.38217841925781    0.88755296906429   14.57812928799590
H         1.45896656214510    0.95311339499622   14.51478868196842
C        -0.22080175689942    0.82972734317343   15.82408728354014
H         0.39176693374276    0.83529398154499   16.71390965352565
C        -1.59985523106927    0.76438610084311   15.93176430755196
H        -2.06274744266795    0.71640843360983   16.90561360868643
C        -2.38572450313307    0.76437677029787   14.78864411636886
H        -3.46080494786533    0.72078686563159   14.86997235951111
C        -1.79054892859096    0.82177921625592   13.54402980585462
H        -2.39357664908451    0.83038857369771   12.64473084780606
C        -0.54771607231537   -0.37094489914380   10.91321156336900
C        -0.48422504967979   -1.63952307182095   11.48598223212818
H         0.03171973077901   -1.78822348267716   12.42544521809302
C        -1.10386307627347   -2.70670064973690   10.86622708593780
H        -1.05462509141485   -3.68837508434242   11.31244676375888
C        -1.79729431168498   -2.51607809831992    9.68081306121699
H        -2.28360303186603   -3.35248502264417    9.20303805322364
C        -1.87943740395415   -1.25331745254692    9.11983070028413
H        -2.43264010146814   -1.09976102345898    8.20626549242976
C        -1.25857653467314   -0.18013614147890    9.73457411424624
H        -1.32897179332435    0.81271320469914    9.30901796330404
C         2.20280945785921   -1.21905760301830    9.48201481990838
C         1.54199491797404   -1.07837942267707    8.26938960632136
H         1.40746784072669   -0.09052492323413    7.85391608945386
C         1.07701185334501   -2.20661458646321    7.61806924370365
H         0.56383251383129   -2.10804971998192    6.67393772877966
C         1.27498680898644   -3.46038932031196    8.17381187735560
H         0.91396706812739   -4.33846534529771    7.66065552784617
C         1.94315570607934   -3.59709840967795    9.38158145470795
H         2.10286178686634   -4.57728636079658    9.80412679128928
C         2.41150425597842   -2.47605652842192   10.03930063346762
H         2.94797639221208   -2.56737745143276   10.97494960368985
C         4.59172603828098   -0.04395317825510   10.69176980216426
C         5.36420503476233   -0.34168222908840    9.57180384296516
H         4.86903980674375   -0.47958179357109    8.61812875300370
C         6.73604337935271   -0.44909484437850    9.68724030344872
H         7.33627481368376   -0.67862623183168    8.82007244403267
C         7.33932938093417   -0.25507234101555   10.92111057888321
H         8.41181170344854   -0.33055888672725   11.01341782304445
C         6.57110708006596    0.03649037180453   12.03599836361630
H         7.04551953239105    0.18554401406071   12.99440612602842
C         5.19468791453981    0.14471576287675   11.92794875524811
H         4.60562916796884    0.37292044292606   12.80505146585451
C         2.90240672891439    3.84565916503611    7.27739835461327
C         2.23632229549978    4.76812151610258    6.48601862698257
H         1.62896550566589    5.52643623709744    6.95479569334864
C         2.36752662362494    4.69291383315400    5.11094253094912
H         1.85239725737992    5.40762873894697    4.48849025908548
C         3.15295552234199    3.70596173680152    4.53752586685647
H         3.25164880301711    3.65026720171897    3.46467974713921
C         3.81074322669405    2.79083522943440    5.34077902625025
H         4.42398041336201    2.02080294533904    4.89825067017849
C         3.68991620137967    2.85664359782228    6.71944569930276
H         4.19619908346501    2.14910783259322    7.35945839323872
C         5.49314224948704    3.95442299841248   10.17454857227211
C         5.88760335815697    4.15762963849714   11.48558495086294
H         5.56431408017494    3.46768936813060   12.25062603788811
C         6.68754167227391    5.24591745613720   11.78867293889005
H         6.99768674684973    5.41120319585894   12.80888468496707
C         7.08157429931061    6.11994626587032   10.78937170035202
H         7.70140100139104    6.96955880861903   11.03004372794617
C         6.67882304707656    5.90640602817590    9.48177651098251
H         6.98251823574736    6.58619757902006    8.70085330641347
C         5.87847282700584    4.82135962517413    9.16643045348841
H         5.55838566918111    4.64088778869060    8.15057739871888
C        -0.34014048080652    4.20518708466119   13.91216465276710
C        -0.36285312185656    4.61744135811774   15.27572522176715
H        -1.11420923147391    5.39647862856131   15.40710243870032
H         0.61434984696552    5.01190852123813   15.55511749508505
H        -0.60897480313181    3.76669070853041   15.91204904603761
O         0.32444615749146    2.54812996304546    7.90385581181773
O         0.03402002382575    6.25925379742266    9.93023474722220
O        -3.16368696071258    2.92792302342364   10.54921900976340
O         2.74925442973373    3.99073663344842    8.65711421002956
O         4.71465650593821    2.83073218758103    9.86574067797539
P         0.24749543551675    1.03517386878139   11.74080050245054
P         2.84123845960288    0.22471957053439   10.32889620387266
P         3.12531841823546    2.94333543475779    9.77801828367263
S         2.41860006971409    3.72784179031990   11.47090135059863
Re       -0.10626389750773    3.31660171974514   10.87184852692303
N         2.61823485056244    1.46039092297994    9.33368064593383
N        -0.34469186731715    3.87480660280379   12.81336847027880

