74
CSD_code = LUWCAH | q = 0 | S = 0 | Stoichiometry = C36H30As2Cl3O2Re | MND = 6
Re        6.90318720863663    3.85854299487495    0.83521838885651
Cl        5.78128746332657    5.27118883339160    2.28692164786890
Cl        8.34728030907473    2.27820562431526   -0.17145864942090
Cl        6.19877405447860    2.14461165398437    2.11337246127058
O         8.64280388425461    3.73744010483938    2.34309467695875
As        8.10294467762619    6.01533316596652    0.74314251809910
C         8.89489300478268    6.71165834180645    2.37511855578955
C        10.17729653058109    6.34804083487895    2.77942762011320
H        10.78343915979697    5.70350661487207    2.14977158692801
C        10.67430593016843    6.78165159742371    3.99694711192540
H        11.66577872209185    6.48449421475723    4.30760624629995
C         9.89647035061826    7.57841030564312    4.82089092491452
H        10.28342801368066    7.90844135553190    5.77381627352975
C         8.61953758636549    7.94317043315998    4.42558132661711
H         8.00783819057577    8.55673025973489    5.07069988183761
C         8.11756671171556    7.51050826732972    3.21027394827548
H         7.10832560672533    7.76693011711432    2.90533985241041
C         9.51086404491070    6.16645097935100   -0.61007395872764
C         9.33247599805985    5.42542545660699   -1.77390559795825
H         8.47375593181741    4.76284899991996   -1.84922211745902
C        10.24828004029423    5.52059902000414   -2.80683948692929
H        10.11072779966692    4.93840164492324   -3.70554704281726
C        11.34399418981306    6.36001081539126   -2.68241139993588
H        12.06306203832828    6.43180112886059   -3.48525551162122
C        11.52049499617799    7.10876226401811   -1.52991226737033
H        12.37333713825102    7.76578525299256   -1.43744137643992
C        10.60616168583893    7.01712373222250   -0.49307176079411
H        10.74229995826382    7.60059873474408    0.41309822727312
C         7.00894466197428    7.50113432784177    0.12895287900876
C         5.75846111435784    7.28179423042419   -0.42820141396275
H         5.37153966269016    6.26776513039041   -0.48580098670007
C         5.01263158922612    8.34915337965507   -0.90064784769958
H         4.03671676268120    8.17560606450158   -1.32888323332813
C         5.51741747217884    9.63600490855864   -0.82154190234385
H         4.93399322035471   10.46840048777558   -1.18627895011055
C         6.77159131463780    9.85942908043428   -0.27496585676304
H         7.16540792210579   10.86367516183149   -0.21654100219708
C         7.51892427497872    8.79537513732629    0.19724321180962
H         8.50456253706172    8.95645513782547    0.62771874151989
O         6.12786251088724    4.22189103293726   -0.58470448091431
As        9.55801127864839    2.36432107950115    2.47511836669048
C        11.07365626665915    2.26071180336650    1.26026144497018
C        11.85142354934064    1.11409702737809    1.18239446766804
H        11.59559113118981    0.24470665660445    1.77840732002498
C        12.93947707611224    1.08232464040822    0.32594458520129
H        13.54230695446833    0.18833460613580    0.25808551521420
C        13.25033041965998    2.18749456497360   -0.44926155063562
H        14.09676529008681    2.15333256036812   -1.11903967995678
C        12.47031489143442    3.33010030972852   -0.37628196905468
H        12.69801029610304    4.19063373222079   -0.98836372828382
C        11.38477346109928    3.36133271427711    0.47945073767651
H        10.73843849878704    4.23497191225257    0.52405236424524
C        10.42594596484442    2.69484630454361    4.19431518142818
C         9.90343741073854    3.67527379330568    5.02679183234108
H         9.03203464489076    4.23199594937254    4.69883566610500
C        10.49122188775550    3.94114020593295    6.25162851054387
H        10.07794509375202    4.70631393097341    6.89259994463743
C        11.60604395932304    3.22367875946789    6.65022311279517
H        12.06810054514237    3.42769723354209    7.60496965026970
C        12.13099804984027    2.24099427276365    5.82533362813401
H        13.00034571028920    1.68106310857870    6.13825973335323
C        11.54357836760571    1.97560350230577    4.60052245298662
H        11.95160573689243    1.20886360710719    3.95072347971081
C         8.78407403635268    0.60076608766042    2.74084473572211
C         8.78754644210678   -0.37128685742738    1.75369123725465
H         9.20533574740925   -0.14729404935294    0.77912351809722
C         8.22292181156099   -1.60843246300698    2.01793902235461
H         8.21270642989975   -2.36683432945538    1.24875295401268
C         7.66095544568600   -1.86881150241079    3.25648230310015
H         7.21048433752877   -2.83068943875068    3.45260648068277
C         7.66557430975468   -0.89548240265981    4.24331091274134
H         7.22018732084445   -1.09660049465534    5.20677646240792
C         8.23366550311916    0.33942389940349    3.98880833698485
H         8.23272786253613    1.12165244611359    4.74456173316216

