31
CSD_code = LUWCUB | q = 0 | S = 0 | Stoichiometry = C8H12Cl4N6Ni | MND = 6
Ni       -0.00067511575124    6.44563390989180    0.00034941867978
Cl       -1.40580419343129    7.98202170043443    0.66918323256850
Cl        0.63408789856856    6.17088195026677    2.10438393712925
N         1.50314295383422    8.17146989319683   -0.18988180035445
C         0.75580100176395    9.28700064649256   -0.30734878237740
N         0.13551205730797    9.52492993717437   -1.45603257727334
H        -0.08879903819541    8.65738689062697   -1.98933396827056
H        -0.58420525385287   10.23123004999117   -1.47372489872871
N         0.80672299842088   10.25606200983012    0.65189714506734
H         0.15814985449406   11.02943406827988    0.58738620019901
C         1.58189563416842   10.11314841344041    1.75863673689730
H         1.51625536880577   10.88901911722445    2.50457801031361
C         2.40707625125207    9.03463262542078    1.85559762249379
H         3.05510006821401    8.89194433498089    2.70165945039479
C         2.33587190379103    8.07125366769465    0.82958203379828
H         2.96554786784401    7.19170629606844    0.84382768912302
Cl        1.40556502591496    4.91007359049556   -0.66859430246017
Cl       -0.63506298056689    6.71976973396552   -2.10395054108526
N        -1.50378286492914    4.71892182039373    0.19042914037484
C        -0.75562627145927    3.60385128099811    0.30723128037897
N        -0.13536434258229    3.36560352826889    1.45586876852081
H         0.08837666851601    4.23300894537279    1.98965443652940
H         0.58489399077110    2.65984250085230    1.47317926263870
N        -0.80583219528463    2.63531337275005   -0.65262279631227
H        -0.15631718675793    1.86267409994970   -0.58884268101326
C        -1.58122476938128    2.77829067092518   -1.75917835699410
H        -1.51494551074318    2.00299646818974   -2.50566275908536
C        -2.40733768513688    3.85616080120456   -1.85536791692104
H        -3.05558256589847    3.99882392891321   -2.70126488974127
C        -2.33664364128199    4.81909756401214   -0.82890700800773
H        -2.96679592841588    5.69831618269746   -0.84273108648276

