53
CSD_code = LUWKOF | q = 1 | S = 0 | Stoichiometry = C18H24MnN4O6(1+) | MND = 6
Mn        0.58126101463557    0.29012759193333   10.50428599101390
O        -0.78449621152027    0.32765219167807   11.64346988955342
O         0.35843388838134   -1.94444789819893   10.66504780828432
O         0.81061218155636    2.52204058688307   10.54031197910922
N        -3.56067901019364    2.16418465814030   12.88736212090036
O         2.04238924684855    0.31182375229540   11.53701659914178
N         4.89586708680144   -1.50359737582827   12.63229654852555
N        -0.72920982889856    0.50868029088123    9.06480815317342
C         4.73687733848176   -1.77071246171422   10.26469244472471
C         3.57071930363955   -0.97084910245360   10.24721552227877
N         1.76543923705747    0.00216716348485    8.98576825668356
C         3.82485818474753   -0.75910453650620   12.66867833860710
O         4.39574666284991   -3.44665113681120    8.54534396626661
H         3.55717428082773   -3.06375116848500    8.26585228610378
C        -1.84307373422386    1.07140030109132   11.64088430412410
C         2.90933214443215   -0.59416603148831    9.03129307256292
H         3.44535070573330   -0.77316156844503    8.09919181317449
C        -2.45139664374493    1.50139935197431   10.42417952051828
C         3.08568713990070   -0.45048453075351   11.48372657011904
C        -4.14854295722474    2.54308394106725   11.75913516747395
H        -5.05743185103516    3.11356173706830   11.86497610792371
C         3.34251798452435   -0.25173314381137   13.98679186891422
H         3.90168872936013   -0.73028991690126   14.78398486984684
H         2.27782838705363   -0.44635902693495   14.10690267865532
H         3.49303247969113    0.82589992584500   14.04564195728134
C         5.34716400818074   -1.99433986727796   11.48373038491211
H         6.23869831571493   -2.59900868213378   11.55923635764562
C        -3.64667883003304    2.25131646364506   10.50500795832948
C        -2.46912094620528    1.44992226667748   12.86955872755083
O        -5.43479591221776    3.56495118876462    9.65238535060602
H        -5.91862191738769    3.84792742532608    8.86950712277111
C        -1.87367111610369    1.09441267787116    9.17695395155769
H        -2.46906632074224    1.26422716608563    8.28154325102678
C        -1.84528032101325    1.05033881390191   14.16598149757980
H        -2.28896877607158    1.62531988313016   14.97217928697668
H        -0.76805618441848    1.20687363544372   14.14001586854313
H        -2.02533983633987   -0.00841255075807   14.35109117571170
C        -4.36574250159033    2.74127199121382    9.27469539077691
H        -3.65842395176747    3.29624375779563    8.63645813395916
H        -4.72987351616185    1.86946276827302    8.70570534929974
C        -0.27506191531552    0.09339778148682    7.75476360252591
H        -0.81302147984492    0.60234130257767    6.94813974357840
H        -0.42617482639481   -0.98850237780859    7.66076586293466
C         5.26053875753550   -2.44067300614365    9.01699411723242
H         5.46331693286029   -1.69274305283151    8.23547322204725
H         6.19639966385672   -2.95246251412080    9.24717455117679
C         1.22666671743608    0.40038042402123    7.70302943030845
H         1.71054999185632   -0.11681210201763    6.86756388712776
H         1.36944793308949    1.48130576960008    7.58737212907489
H         1.08356366369821   -2.37912093188376   11.13332614091004
H         1.63331436204942    2.80053353734394   10.96625385160711
H        -0.45451748072380   -2.20215284602568   11.12145645264799
H         0.09406972637151    2.97198748383444   11.00667936662065

