56
CSD_code = LUWKUL | q = 1 | S = 0 | Stoichiometry = C19H26MnN4O6(1+) | MND = 6
Mn       -0.02445685368048    1.47088856307718   10.95439124662004
O        -5.92452915765098    4.69698209838435   12.52739896722534
H        -6.32667868599185    5.50995777370440   12.20435344649476
O         1.31826965538488    0.56851092753713   11.72001219499134
O         0.21581956642397    2.86520864478944   12.69837566009802
O        -1.48775687072957    0.74152820429623   11.66389190685325
N         4.02286355843972   -1.67476920219107   11.16382230215568
O        -0.23646569024318    0.00572866488834    9.28452877209284
N         1.30641283549483    2.35183585845818    9.83343238825181
N        -4.39379343786954    1.18301164320788   13.65670521421278
N        -1.18345422012809    2.80331989117997   10.12525667865118
C        -3.30180174268377    0.65604982992998   13.17814753091996
C        -2.54480509648386    1.30134304096399   12.14767782690479
C        -2.81218932227741   -0.63569561221262   13.74576424840790
H        -3.32648897494876   -0.83830690489589   14.67957966474584
H        -1.73592417745559   -0.60261388632043   13.90667054869734
H        -3.02195135307297   -1.44690174399634   13.04874115692954
C        -3.02964716329685    2.54936832444944   11.65139743030287
C        -0.61384642420717    3.48893638303679    8.98433483961891
H        -1.07006928300745    4.47128891497176    8.82154758643758
H        -0.77109672280154    2.87046298923819    8.09247949556569
C        -4.23315883909827    3.05930621352857   12.19170176672298
C         4.15993649547083    0.04805770727285    9.51885135084760
C         0.88972650027751    3.61359815741684    9.25868840692578
H         1.44475149553612    3.85397859191359    8.34578701224616
H         1.05582046581270    4.40416190922061    9.99976627419018
C         2.98312802525484    0.64028161030957   10.03078081071649
C         2.95018111673070   -1.14942194011788   11.69076029443805
C        -4.86380041574007    2.33142198072540   13.18103516656722
H        -5.78269572877598    2.68592771257169   13.61990471493501
C        -2.33271105282405    3.18553480107034   10.57486179822627
H        -2.83701330794172    4.01845025982876   10.08768138077157
C         2.35808805247513    0.04068060261850   11.16192571890399
O         3.99621210413414    0.81956454053249    7.21839640597514
H         3.92605844515079   -0.00766169044954    6.73128390698546
C         2.30850319906148   -1.83295837320884   12.85224828024460
H         2.68160372987093   -2.84916908722674   12.92853129323162
H         1.22500552315247   -1.83256443617294   12.74603466332548
H         2.55529806191027   -1.30254621549749   13.77177631621415
C         4.86457673290757    0.63861843575149    8.32109989294441
H         5.24544722228285    1.63431285332119    8.57421997972354
H         5.71990238453147    0.01070430220718    8.05433539328054
C         4.62361194085830   -1.10103334110313   10.12593504543120
H         5.51507162947897   -1.60208800438316    9.77673680344769
C         2.44750068783316    1.85485340408190    9.48762196387557
H         3.05972910836988    2.37877871232473    8.75772069113243
C        -4.82469333699068    4.36422136271039   11.72431842452382
H        -4.05617789175218    5.15286936669424   11.77840441399445
H        -5.13245432930403    4.25673412865150   10.67073025627992
C        -0.69970467548908   -1.32164611665886    9.53265258200658
H        -1.06782608636181   -1.76330994391696    8.60331325517441
H        -1.51852048395888   -1.24190772921617   10.24569378373928
H         0.09156981800597   -1.94724327158558    9.95285943348139
H         0.98049707613544    2.63880440412676   13.24548849140802
H        -0.54913674091561    2.88255185224998   13.28819560491283
H         0.51316263469654   -0.05819716209052    8.67554931699855

