89
CSD_code = LUWLUM | q = 0 | S = 0 | Stoichiometry = C44H38O2P2PtS2 | MND = 4
Pt        3.08926043975429    5.39269329326219    3.44986236883959
S         2.87228817017187    3.11117262077816    3.17329368480468
S         0.97208013279606    5.63905932366879    2.52391159269455
P         5.15114819963713    4.97307026944863    4.40175005429392
P         3.14938763062054    7.70564181559357    3.65566878260479
O        -2.43616629893237    2.21607274272203    0.75078042888311
O        -0.92934169381715    0.18072466402808    1.31966893285555
C         5.63114546253069    3.24564433251119    4.70356460377238
C         6.45667840886483    6.32680009973723    2.38219916416780
H         5.44589718044673    6.52047375053802    2.03797387511490
C         1.28500439585179    2.91174898561388    2.45845358792539
C         5.18849103367293    5.68951097253462    6.07386926385362
C         3.36485327506027    7.83022936310251    0.91453239719369
H         3.05784542491305    6.78990733286101    0.97706181035064
C         6.63461905788370    5.57729555566439    3.53860129812165
C         3.51092802082412    8.55972363061747    2.09005964264732
C        -0.77751209701459    3.79243377068781    1.59021823240711
H        -1.37791060552453    4.66197622718470    1.37452175212140
C         6.03289924545018    2.49903641494451    3.59764942964202
H         6.07473208815631    2.97284858642770    2.62597361846805
C         6.27558004080491    6.30717576151577    6.67456773030297
H         7.20203040458007    6.42781650080919    6.13317016675931
C         1.52495930554066    8.36897491834815    4.14428998711890
C         7.92168340804854    5.26364129427316    3.96519926880513
H         8.06322498344001    4.63505457026922    4.83394400142416
C         4.13801399460729   10.48568573775853    0.80037382846559
H         4.43903282105074   11.52239919125421    0.75412839059977
C         4.25473750566135    8.55839366447457    4.83244691239786
C        -1.22431285039750    2.51751047257086    1.31295676471533
C         0.83884301757488    1.61925077667022    2.18271608612070
H         1.49586468604126    0.79965894922208    2.42743024989943
C         3.98894866408355    5.57048147238232    6.77370691179437
H         3.14661629186609    5.09220097823675    6.27833701151179
C         0.81471468801089    7.63631687252809    5.09245937878522
H         1.23879230581018    6.71010475695385    5.46483874960409
C         3.88116783370858    6.04419670980521    8.06599646178607
H         2.95112933328588    5.94475843335025    8.60635170137098
C         7.54965107274195    6.79886652285031    1.67809017225512
H         7.40281689325617    7.38409354001790    0.78181468858147
C         3.90088517205117    9.89487878911450    2.02834672341650
H         4.02417095599447   10.46552508296035    2.93881859638218
C         5.58037190689542    8.80186792574579    4.48208506135244
H         5.93766024412381    8.51320143134225    3.50400415145945
C         0.47575820225306    3.99743059267781    2.16774382745279
C        -0.40201258664510    1.40876564761068    1.61916166095252
C         6.28155488496559    0.56529553887782    4.99035482332604
H         6.53184567909094   -0.47930069568881    5.10381369100703
C         3.80844737931504    8.92806995337990    6.09689778472608
H         2.78406419289511    8.73643199140858    6.38209352364571
C         5.54587072441030    2.63959453305447    5.95066517317996
H         5.22134772785269    3.20906643635143    6.81020160021112
C         3.60224196248203    8.42574051011913   -0.31065425080443
H         3.48640247397675    7.85472957320199   -1.21986299321224
C         0.97678072742734    9.53277621233574    3.62284781982563
H         1.50948689662879   10.09772640493792    2.87168923461440
C         6.16265056530356    6.78381739556523    7.96961338357419
H         7.01006503812110    7.26365790885217    8.43697333563099
C         4.97433059461414    6.64891859541198    8.66692567283424
H         4.89756450032221    7.02038336890699    9.67813347958115
C         8.82926499517696    6.51337307091452    2.12511736628701
H         9.68637963799458    6.88063040534340    1.58017352768617
C        -0.42456116197934    8.06807476451582    5.52279089346433
H        -0.97472650275226    7.49258257339001    6.25283445261750
C         3.98912377303639    9.75465517935258   -0.36799401468391
H         4.17600935042980   10.22325587361551   -1.32309038516051
C         9.01277587404046    5.73978095498862    3.26129149694220
H        10.01250095262258    5.50162540092081    3.59457735083733
C        -3.29423906328013    3.27879404738816    0.43375179142708
H        -3.56464466239777    3.86102915970432    1.32196285407687
H        -4.19039773995949    2.81990147421156    0.01819106474513
H        -2.85164888816032    3.94873292742944   -0.31231803064243
C        -0.96725093509973    9.23251892285949    5.00243322338972
H        -1.94094111440968    9.56751390483334    5.32870872614969
C         5.87629066087473    1.30289033127522    6.08964874633427
H         5.81050499673482    0.83445356408727    7.06102608614974
C         6.35779384656609    1.16500433870376    3.74306139086569
H         6.66316416127793    0.58792247873204    2.88264658134746
C         6.43528073540117    9.42311644763009    5.37213253936584
H         7.45967520473637    9.61294347990944    5.08587313399115
C         4.66706051333508    9.55116925326039    6.98370220105429
H         4.30791765715483    9.84372144304963    7.95941852948842
C         5.97981801015192    9.80398436163476    6.62367447599917
H         6.64619053577148   10.29655843129162    7.31608744931351
C        -0.26793976315732    9.95917869766025    4.05395337372160
H        -0.69637140166363   10.86071945001131    3.64031269875232
C        -0.15971411166168   -0.95291290986108    1.61888108282144
H         0.78397380046334   -0.96090745781761    1.06176006950162
H        -0.76343839743686   -1.80740868445598    1.31585342002094
H         0.05653992306939   -1.02472395594505    2.69095262191285

