79
CSD_code = LUWPAU | q = 0 | S = 0 | Stoichiometry = C42H26FeN10 | MND = 6
Fe       -0.00000000005489    0.00000000002448    0.00000000037177
N         0.99601932357928    0.75549545256311    1.47790690756385
N         2.33886783982987    2.36098077327841    0.29818219592256
N         0.91690359864487    1.17638833312646   -1.23393347877762
N         0.09971415363345   -0.51589536028854    3.30259876711932
C         0.88849196391606    0.39611747139885    2.78426651737085
C         1.80079023544174    1.18372691664086    3.58949422112006
C         2.08123360272002    1.21209429175338    4.94550117985654
H         1.56730719895399    0.55068878300523    5.62494594525623
C         3.03598257796537    2.11224470558347    5.38627329140104
H         3.27889505487281    2.15986547993420    6.43809500912541
C         3.69452575376345    2.96266671520939    4.50016705714659
H         4.43344541055151    3.65156299574082    4.88356824560174
C         3.41992240364618    2.93999486462007    3.14384796011843
H         3.92476135129722    3.59430509527524    2.45053432307017
C         2.46584104737132    2.04108328402245    2.69642040247152
C         1.93204685257881    1.73906431463464    1.38408499670428
C         1.86535333545215    2.09366694564210   -0.90006643997053
C         2.32321146452498    2.78654921680668   -2.08692458575644
C         3.25766588609282    3.78764939661497   -2.29457563893567
H         3.81034926214453    4.20241449799412   -1.46621395995611
C         3.44981562443318    4.22725823982524   -3.59278150254828
H         4.17128524600044    5.00687881594209   -3.79090483240899
C         2.72979450751710    3.68381068739912   -4.65501502670000
H         2.90845553980696    4.05421308489107   -5.65425825700928
C         1.79475770946522    2.68309780674129   -4.45411075637802
H         1.23370240024070    2.25734433154206   -5.27091070111856
C         1.59715639219289    2.23765423973247   -3.15766832658081
C         0.72774066746029    1.23273376100373   -2.57865882122689
N         1.44435655182451   -1.39698909635478   -0.25473890448154
C         2.73876799040749   -1.07335090411885   -0.23584261245995
H         2.97712300267704   -0.03207910302013   -0.09069680216250
C         3.75851651352548   -1.99459043103530   -0.39061420161007
H         4.78477430319560   -1.66394123020343   -0.36386959150017
C         3.43873848154969   -3.32985654180934   -0.57715602458965
H         4.20867353578641   -4.07606203505233   -0.70018011063368
C         2.09674518449582   -3.67412680834803   -0.60084409131591
H         1.78429802012589   -4.69647391020349   -0.74363416709938
C         1.14475495972265   -2.68436509425400   -0.43748765656594
H         0.09801536548417   -2.94173693754761   -0.45470713654349
C        -0.72774066772987   -1.23273376078036    2.57865882201697
N        -0.91690359887422   -1.17638833295493    1.23393347956080
N        -0.99601932368314   -0.75549545249392   -1.47790690681336
C        -0.88849196391047   -0.39611747144852   -2.78426651663960
N        -0.09971415373273    0.51589536036494   -3.30259876636328
N        -1.44435655188365    1.39698909634833    0.25473890465189
C        -2.73876799048040    1.07335090422321    0.23584261151363
H        -2.97712300270151    0.03207910302647    0.09069680185659
C        -3.75851651367908    1.99459043137428    0.39061419869202
H        -4.78477430334714    1.66394123060726    0.36386958774236
C        -3.43873848177822    3.32985654227693    0.57715602089096
H        -4.20867353608186    4.07606203570120    0.70018010540243
C        -2.09674518471670    3.67412680868758    0.60084408890657
H        -1.78429802040084    4.69647391061971    0.74363416426396
C        -1.14475495985591    2.68436509435865    0.43748765610333
H        -0.09801536560952    2.94173693755105    0.45470713711621
C        -1.80079023513238   -1.18372691699364   -3.58949422042723
C        -2.08123360202287   -1.21209429252981   -4.94550117923623
H        -1.56730719823544   -0.55068878381983   -5.62494594465234
C        -3.03598257686626   -2.11224470675511   -5.38627329083003
H        -3.27889505337478   -2.15986548151545   -6.43809500862532
C        -3.69452575273295   -2.96266671630403   -4.50016705654993
H        -4.43344540918177   -3.65156299717221   -4.88356824505264
C        -3.41992240306363   -2.93999486524899   -3.14384795944443
H        -3.92476135078198   -3.59430509581124   -2.45053432235938
C        -2.46584104711346   -2.04108328432057   -2.69642040175800
C        -1.93204685263742   -1.73906431463161   -1.38408499594488
N        -2.33886784004737   -2.36098077312492   -0.29818219513304
C        -1.86535333580262   -2.09366694537610    0.90006644079214
C        -2.32321146500074   -2.78654921639314    2.08692458661712
C        -3.25766588667322   -3.78764939609638    2.29457563986351
H        -3.81034926281716   -4.20241449741981    1.46621396091790
C        -3.44981562499246   -4.22725823926721    3.59278150349172
H        -4.17128524660797   -5.00687881532734    3.79090483338963
C        -2.72979450798282   -3.68381068689675    4.65501502761184
H        -2.90845554024428   -4.05421308438111    5.65425825792972
C        -1.79475770987018   -2.68309780631017    4.45411075723906
H        -1.23370240059359   -2.25734433112244    5.27091070195002
C        -1.59715639259616   -2.23765423935567    3.15766832741797

