81
CSD_code = LUWRUQ | q = 0 | S = 0 | Stoichiometry = C30H30BF15N3OV | MND = 4
V         8.84815004200479    3.61129716055575    3.30904168433643
O         7.27796485567701    3.69930570164202    3.37390691352975
N         9.59562826876607    3.01373865462110    4.77818367441594
N         9.64097890625284    5.14653782841673    3.01328791512180
N         9.46116265434394    2.55696646731888    2.04947593285038
B         5.85861928254494    3.77547445432193    3.43188987805220
F         3.44177409766302    1.94536050580082    3.29478282757828
F         2.61457678760299    0.65234523065981    1.09170944812373
F         3.97812327030954    0.91105436525721   -1.25999609489752
F         6.21074105432400    2.50357751521034   -1.35304266917723
F         7.01883271900777    3.83020025772994    0.84193152486704
F         3.55528381471680    5.07950560592392    1.94734153342800
F         3.03029594280881    7.71268590215515    1.93099325210750
F         4.62544952038082    9.45148978608961    3.30490728340440
F         6.77999213482394    8.48414397049830    4.70252212555711
F         7.28615370375093    5.84389315875827    4.75109246003725
F         3.67481589409891    4.67421876235645    5.33824583754788
F         3.03751018720410    3.44221852344962    7.63732707437868
F         4.39414846178461    1.21069072303440    8.43500135182920
F         6.42445844797598    0.23741832147119    6.86664180129479
F         7.04017761045437    1.44775286777299    4.54548297206511
C        10.70482073463334    2.09221461509908    4.85029491189651
H        11.49874141782073    2.50629336801782    5.49013563969700
H        11.11963912426916    1.98562201033912    3.84281228421328
C        10.31757535112100    0.70391109232882    5.38275502408916
H        11.11743648974974   -0.00350660071256    5.17673827349351
H         9.40595325706828    0.36238157687609    4.89623159831577
H        10.15438292809356    0.72072410569251    6.45729775937588
C         8.98139706136191    3.27388714093005    6.05841094162044
H         8.58469579166560    2.34258824529923    6.48832110203338
H         8.14650384919445    3.95638846423406    5.88594286517578
C         9.92147087510302    3.91021275095417    7.09121789707902
H         9.33790817336445    4.24411442537611    7.94517104228031
H        10.43118825433485    4.76944010749293    6.66308923120454
H        10.66269812885263    3.19854436754553    7.44776038095009
C         8.98311859329871    6.15980284890197    2.22306087614301
H         8.69208310798827    7.00981989787773    2.85730863075052
H         8.07661800981080    5.71237381161121    1.80985815982339
C         9.82857083681684    6.70177122652829    1.06253749852148
H         9.19751336792397    7.30235359603319    0.41261436396295
H        10.24508340601386    5.88348885555865    0.48079398303427
H        10.63952064839395    7.33207149901094    1.42042296544394
C        10.85166727368108    5.61035026709724    3.64865599419508
H        11.58242267766490    5.92167844735487    2.88692140250258
H        11.28843705424932    4.76842614539606    4.19531434677101
C        10.62692408733165    6.77789114966853    4.62184319214915
H        11.50721326508865    6.90831711272654    5.24696436612052
H         9.76724299061018    6.57008591044762    5.25606446212264
H        10.45199491177688    7.71047160770955    4.09154388456690
C        10.59872372136891    2.82261448458666    1.20093740013289
H        11.29490648163113    1.97071885059169    1.22498589610501
H        11.12846120210499    3.68896900507371    1.60991387676843
C        10.22206544424295    3.10931692947177   -0.26077916303655
H        11.07372912185331    3.54234488121326   -0.78028990597882
H         9.38899931609852    3.80859549008288   -0.29740893991951
H         9.93769141114764    2.20028514745499   -0.78445890407479
C         8.69916233855716    1.40035200364116    1.64247201835482
H         8.30670128172880    1.54008052086340    0.62467097186093
H         7.85395900135028    1.31005492495018    2.32811268981939
C         9.48772923829686    0.08408808147385    1.67020660998270
H         8.79857394793197   -0.74635048214739    1.54091876365544
H         9.99710303131291   -0.03394347850881    2.62306673812422
H        10.22055183519193    0.04122827998654    0.86766217901232
C         5.24744809247029    2.95070379866923    2.14483689872065
C         4.13303418191579    2.12243305971894    2.15984766461011
C         3.69063254125189    1.44164169190350    1.02902791591272
C         4.38175186921409    1.56993095803615   -0.17073849128295
C         5.50796354996925    2.38233488146932   -0.21768859027263
C         5.90965401728434    3.05222379434342    0.93014617608772
C         5.42688229082248    5.36267648148077    3.36531957998770
C         4.35605879464877    5.88896481500630    2.65500120117306
C         4.06950975095380    7.25102562709273    2.63227331832611
C         4.87908356984208    8.14055643753515    3.33008520279778
C         5.96541390696123    7.64819359530322    4.04274785262115
C         6.21045080705468    6.28157785376098    4.04786019248408
C         5.36599637575187    3.09527072115499    4.84782064556655
C         4.35660797440901    3.57005083332940    5.67478568526708
C         4.01367817191840    2.94687996790381    6.87143660510963
C         4.70179322380478    1.81047444408948    7.28211579081963
C         5.72497837891780    1.31509697731043    6.48322286339461
C         6.02884580621686    1.96061561471481    5.29217945388548

