101
CSD_code = LUWSAZ | q = 1 | S = 0 | Stoichiometry = C49H43ClN5P2Ru(1+) | MND = 6
Ru        9.65485703143128    8.46043454040096   11.23054273519302
N         9.52285723385877   10.14063916490993   12.13177034354547
C         9.13787345768146   10.18067657573543   13.41579666677664
C         9.03590764680087   11.39217207142878   14.08866818464654
H         8.72638000941194   11.41362420585701   15.11992391190094
C         9.34076164787987   12.55962359953345   13.40423688364542
H         9.26963464646566   13.51125629124129   13.90574584074484
C         9.73667895354280   12.50427249529387   12.07582689407607
H         9.97713423365292   13.39963983204423   11.52685077262562
C         9.82022717392910   11.26277171509165   11.45568630049708
C         8.87274132021643    8.85605528346045   13.93139146350717
N         9.04214169792943    7.82633106079884   13.08327172370718
N         8.74827531991654    6.72060176386980   13.76402420534849
H         8.80818527737389    5.80999633481319   13.32866860830902
C         8.38953315181359    6.99417160865344   15.04115107427372
C         8.45880836385443    8.36260519975010   15.18183270102333
H         8.24351856248870    8.93496364704117   16.05912330310628
C         8.01698629985629    5.92697345821719   15.99834296763963
H         7.15823328464931    5.36593386592803   15.63147820305856
H         7.76443625626498    6.36176029363742   16.96041416598603
H         8.84275317705981    5.22965549941547   16.13512705732277
C        10.20800879663934   10.97660521119217   10.09065132605366
N        10.21271681307595    9.68163398163344    9.73293769902206
N        10.59108147735434    9.62945978285419    8.46276052798260
H        10.66398247281461    8.74045206583403    7.98530187060537
C        10.83840471604310   10.86344878566500    7.96263632719518
C        10.60165178188461   11.75566014502810    8.98601770515470
H        10.69688054048367   12.82058743591023    8.94891117156228
C        11.27237557802089   11.06821793129972    6.56174924142597
H        12.20132623988613   10.53315904362572    6.36856811699261
H        11.43062537874764   12.12477169490954    6.36976863920125
H        10.51621454763526   10.69598426842497    5.87141929495899
Cl        9.86319408947753    6.46084397387106    9.93855167254423
P         7.40832600194753    8.59542025643236   10.57381228637024
C         6.27918493967153    7.19038145321219   10.83423997531879
C         4.90716316922324    7.38922051633051   10.68966758527399
H         4.52827925556166    8.36923309437464   10.43536312716571
C         4.03524356445655    6.33394989647909   10.87272908830328
H         2.97311032374003    6.49013993458969   10.75901881350624
C         4.52143830865788    5.07583910261495   11.19635243246055
H         3.83603758622629    4.25393670307400   11.33658520884466
C         5.88426858288518    4.87267442456835   11.32725437885678
H         6.26424182987439    3.88901980002733   11.56055193384739
C         6.76378115695667    5.92625342381991   11.14424650882933
H         7.83128190971079    5.76495019804216   11.19876281873805
C         6.61111430795561    9.91019193045751   11.54371785744049
C         6.76646936005273   11.24528245713670   11.17671537681461
H         7.27115346890206   11.49244903662997   10.25107604510930
C         6.27214268824254   12.25088454074514   11.98621013413305
H         6.38379427299270   13.28271783434980   11.68817142462563
C         5.63738927002104   11.93677719692008   13.17718398114165
H         5.25021795607108   12.72383877268761   13.80578680631366
C         5.50112503677737   10.61265138777855   13.55975758136932
H         5.01118952084553   10.36482302541183   14.48937728980409
C         5.99126505941584    9.60307192056828   12.75188960447689
H         5.88215772207537    8.56841225383280   13.05026007410438
C         7.03865591958730    8.99439488042374    8.83517485923175
C         6.02673021252652    9.86366812902145    8.43942089474980
H         5.42097977491019   10.37369383294573    9.17468002121083
C         5.79210033826232   10.07829575592873    7.09287918364183
H         5.00642523407547   10.75435387703040    6.79049604943895
C         6.55174753498316    9.42621287139831    6.13545855202772
H         6.36183792856740    9.59971970010717    5.08716749299380
C         7.54177921550641    8.53906324079520    6.52560111877372
H         8.11827043995946    8.00965924098454    5.78124519455218
C         7.78245034044852    8.31953827848660    7.86932169978566
H         8.52776827331723    7.60034567621476    8.18469263172838
P        11.87829983473088    8.21446789293005   11.93234190748414
C        13.21237154842851    8.41122177116612   10.70778923872718
C        13.01851699296742    7.81438604951227    9.46403848926666
H        12.10300472221409    7.26751718777639    9.27770004594153
C        14.00305065441990    7.88771002566429    8.49582228654221
H        13.84967368924080    7.41893856930756    7.53491252316932
C        15.19058434778199    8.54866796375241    8.76434541160507
H        15.96082003746920    8.60694374256841    8.01041567986619
C        15.39682975273007    9.12102674133286   10.00905097574325
H        16.32933684145209    9.62005812313680   10.22622554892462
C        14.41687218447254    9.05172667878489   10.98301602342204
H        14.59316997287588    9.49804875140756   11.95122819756719
C        12.21452791511239    9.47676398140149   13.19628000761757
C        12.52052340221271   10.78105197375938   12.81331940365527
H        12.66632444807024   11.01190944438407   11.76531602863178
C        12.64753722618665   11.77415871504778   13.76640410996877
H        12.89918798502058   12.77946368784516   13.46312133741115
C        12.45057164596731   11.48152075297108   15.10639133383916
H        12.55278228635072   12.25816255186080   15.84862172434296
C        12.12196482151778   10.19233146270923   15.49156050870680
H        11.96323589559853    9.96246038539944   16.53444795770879
C        11.99653005930044    9.19478500902451   14.54209005672294
H        11.74199244929780    8.18725841497099   14.84461024046868
C        12.41329779336419    6.68063490666280   12.75610343948884
C        13.61267313255381    6.66561669497832   13.46585502155681
H        14.20924486850011    7.56423466923644   13.53705944072488
C        14.03526006056381    5.50247131938272   14.07945506700040
H        14.96467600136959    5.49356141880648   14.62864482120238
C        13.27260143942954    4.34775452194468   13.98654679291015
H        13.60823888854704    3.44119878801468   14.46665022491846
C        12.08968584607613    4.35533110561139   13.26771063300538
H        11.50597219665590    3.45109330687676   13.17771147740034
C        11.66046656097793    5.51777177731329   12.65018922576649
H        10.76246681652614    5.51950414485266   12.04790918783523

