72
CSD_code = LUWTUU | q = 0 | S = 0 | Stoichiometry = C30H36FeO2Si3 | MND = 8
Fe        9.61747865757888    7.22513602099337    1.45107101501355
Si        8.39370700472841    7.45846430859927    3.31612447407909
O         8.56979453343034    4.55017674230387    1.19584039721444
Si        5.33443278173844    8.03151035420297    1.96631516041397
O        11.38713324705516    5.54339141032044    2.98332365886009
C         6.84207882072720    8.52019970031953    2.98529788075089
Si       10.76918057472809    8.77586639367628    5.33294897353538
C         7.03827372676229    9.70999457748293    3.58806138735762
C         8.29367191698392    9.90005492799378    4.32529804671822
C         9.14639654016278    8.85648763428764    4.37789134750896
C        10.71437807193406    6.28046664108802    2.40966624106336
C         8.91219552772373    5.64532858162492    1.26778957917689
C         8.80139212332521    9.10178680366010    0.49469752270177
H         7.84823180143278    9.57434973998995    0.65508742589354
C         9.10631563145028    8.16645736882223   -0.51516405676305
H         8.42606486729606    7.80987053784785   -1.27135447522983
C        10.49660207838483    7.90166751987718   -0.47100551574480
H        11.05067873242719    7.31646874538472   -1.18560993911536
C         7.86951834570016    5.94390294245255    4.37116284771680
H         8.72381811545152    5.31872682726220    4.60034414487058
H         7.15073423046837    5.33869719448626    3.83101944425741
H         7.41566938951440    6.25307755238963    5.30601435553036
C        11.04895412293832    8.67945469055631    0.57156754685859
H        12.09913024533389    8.77966859182304    0.79075650324218
C        10.00327249470553    9.40993628981661    1.17759741209433
H        10.11564763748540   10.16445842587626    1.93601523929683
C         5.85930986279031    6.57350684135469    0.85729794189109
H         6.80787152362979    6.76594350417295    0.36564239865719
H         5.11996595485056    6.37299845025760    0.08847728419545
H         5.97624936571072    5.66574850492889    1.43841523070988
C         4.68612678435857    9.43050003440140    0.83603713811376
H         5.44416202778940    9.76926247792168    0.13613674110555
H         4.36392762049296   10.29284944687957    1.40982466318911
H         3.83656590579489    9.08875567090178    0.25167129446671
C         3.91405462890435    7.42160842662793    3.09128036046396
H         3.25148736485878    6.75418693724340    2.54826149528398
H         3.31365076846106    8.24502015480836    3.46382406944410
H         4.29914589931236    6.87591204721746    3.94711354027376
C         6.09095274218538   10.83585269777024    3.53944567007206
C         4.86143727731908   10.75595673589195    4.18321873652665
H         4.61092441336428    9.85456699269298    4.72191860696412
C         3.98043517956110   11.82099324256038    4.14789301733524
H         3.02875787110727   11.75019833859933    4.65500133602879
C         4.31645945273119   12.97858631661150    3.46634527291464
H         3.62813465702678   13.81050933727405    3.43811866602122
C         5.54007675666483   13.06712970032999    2.82385581891029
H         5.80677738701673   13.96900778142567    2.29207068550626
C         6.42421782675420   12.00555273826127    2.86397007636360
H         7.37886469692591   12.07736275889470    2.36260632674066
C         8.51786540337424   11.21294957540507    4.95187243236513
C         7.67394470079438   11.66997754708187    5.95945126877522
H         6.87557284745768   11.03304790666033    6.31121955503706
C         7.85967701073533   12.92052102059710    6.51710428537745
H         7.20108194892725   13.26141189838341    7.30276479101075
C         8.88231084030242   13.73925954552877    6.06785741229124
H         9.02106691163361   14.72023428632594    6.49797725644235
C         9.72655988342644   13.29434660954814    5.06529726861608
H        10.52700108214474   13.92853878807137    4.71132416513308
C         9.54761405035090   12.03853864922007    4.51520188557941
H        10.20834435238682   11.69229628648993    3.73343530041297
C        10.88544420426732    7.04696497734258    6.12891347679989
H        10.97350208941081    6.27165784470045    5.37696346854430
H        10.01035046434788    6.82527133961265    6.73069931423254
H        11.75469401112179    6.97286674351864    6.77513190445030
C        12.21657833531662    8.97850695741665    4.10224144644130
H        12.25419372665311    9.97469482844354    3.67281085450365
H        12.11998087348958    8.26736035923566    3.28706487726407
H        13.17023564087816    8.79772237862458    4.58804778526425
C        10.93889001141502   10.05518725324850    6.74107689331921
H        11.71580806269383    9.75614811129387    7.43893146889559
H        10.01318032911519   10.14762173431657    7.29980672615453
H        11.19129603268378   11.04256569878422    6.37052317460794

