55
CSD_code = LUWVEF | q = 0 | S = 0 | Stoichiometry = C22H28BClN2Ru | MND = 9
Ru        4.69659389827091    5.85372294682173    3.32936630020393
B         7.13721386000226    6.24456761507754    5.08228876690676
Cl        3.24956965901020    7.48533512045212    2.49784127846406
N         6.26812016456279    6.94715043308673    2.81882526386484
N         4.68253830658669    6.76603334373318    5.08890832138662
C         6.31639576173680    7.51648614953757    1.61453187757399
H         5.43808533931292    7.41769856757219    0.98500543589392
C         7.42092387424818    8.22107685046175    1.18011588710062
H         7.42269973233347    8.67067030477904    0.20000557057099
C         8.50869602033781    8.33451516268757    2.03476227161975
H         9.38985911498159    8.87989920616091    1.73129591117408
C         8.43997745723609    7.73080736311439    3.27629288672470
H         9.26914022946476    7.78921382227745    3.96157272769463
C         7.30366100254840    7.02436826695341    3.66587409727170
C         6.66722397524651    4.70391107734139    4.71966936166980
H         7.46305476271510    4.12362356239429    4.25675117889334
H         5.80918106228355    4.69636918153528    3.99025062502018
H         6.33694649542108    4.15836114342474    5.60390245026477
C         8.46399596863513    6.27168942907733    6.01771339028184
H         9.30852310535890    5.79327909635491    5.52566851133474
H         8.30234534028623    5.73509880565835    6.95039232764736
H         8.77530077936020    7.28096111348804    6.27947593200108
C         5.82731419807655    6.92161621954027    5.76513006058193
C         5.79988698801956    7.55929282576880    7.00323071800712
H         6.72658475324101    7.69007381986729    7.53719648686234
C         4.60703378723664    8.00580166636440    7.54066983446255
H         4.58252756477094    8.50536521052772    8.49783427413984
C         3.43467739196892    7.78592932701231    6.83115919488063
H         2.47551500336968    8.09667237684780    7.21390915627572
C         3.51863242862162    7.16073579272612    5.60307056663668
H         2.62749742353970    6.98344412991640    5.00887546548938
C         5.44282153150770    3.41665950633792    1.46804449860638
C         5.28376943505290    2.51744199756398    2.52057065661218
H         5.99685942636126    1.72027569526292    2.66177579151979
C         4.22190697847227    2.63545796930287    3.40521336093444
H         4.12575205700751    1.92805907021276    4.21780038635916
C         3.25796785934008    3.63556146816599    3.25892368611787
C         3.35438508059257    4.49950871865066    2.14328285536980
H         2.48353351227893    5.07551711018066    1.82763144614981
C         4.47568047475279    4.41199440940057    1.28988375303453
H         4.49439001871941    5.01452716485238    0.38549023039037
C         6.61120722479133    3.33057167632272    0.51714457346326
H         6.42768409786255    4.02895880377818   -0.30741780614719
C         6.76504593775304    1.92788887420352   -0.07253893072685
H         7.03865823777658    1.20753298012493    0.69379461817000
H         7.54492000966570    1.92842927336014   -0.83043961108819
H         5.83447335415321    1.60486050678877   -0.53411962425172
C         7.89458829431233    3.76774782357413    1.22907876364927
H         8.13883098121521    3.07905255170597    2.03444813651560
H         7.77468118271996    4.76499333439569    1.65072592503605
H         8.72637398909740    3.78603363638693    0.52869508002805
C         2.04482648859390    3.67373388363735    4.14965865569430
H         1.53061001568299    4.63000177300370    4.06356677176586
H         2.32135926590158    3.51276687430557    5.19100936950684
H         1.34785909760623    2.88445496791529    3.86259128239106

