122
CSD_code = LUWXOQ | q = 1 | S = 0 | Stoichiometry = C61H53N2O2P3Re(1+) | MND = 6
Re        1.17007623543425    3.39231400250108    0.79261387118315
P         3.28100592267607    4.59862591603678    0.61846179004504
P         0.19796707485380    5.64771907397367    0.84075050648261
P         0.96278054902911    3.76478960151545   -1.63793328610248
O         2.67123884468501    0.70296449719803    0.56459216613286
O        -1.42456747593520    1.83435205426238    1.38765919526166
N         2.40736014476677    2.65557368709127    3.68410180557527
N         2.17441834583131    2.57518169262281    4.99802925407007
C         2.08832696052288    1.69669896569543    0.63241497470204
C        -0.49430067782998    2.43899233811325    1.07301928129561
C         1.30299801272501    3.19817936379157    2.98382884279760
C         0.37299294420289    3.41034351655156    3.93331821525887
H        -0.60621391067109    3.81935378738799    3.78327851500982
C         0.83824775241512    3.03101491807611    5.32089213846085
C         3.61945921527668    2.16813569770085    3.42802556881437
H         4.02500483851301    2.11777691423965    2.43796048428031
C         4.17273560584443    1.76451169488848    4.63746070619604
H         5.13813656840178    1.32677373011790    4.78414269758967
C         3.22527632171337    2.03225866819388    5.61243989907052
H         3.24750019745639    1.86417447613309    6.67026853948206
C         0.81517667478238    4.26080995771007    6.20866825883340
C        -0.41965219521054    4.71498926952285    6.65794517192517
H        -1.31361583399501    4.17000693295169    6.39475728196718
C        -0.49987527572662    5.84371384053221    7.45068658725229
H        -1.46178625775610    6.17940207870992    7.80614044215939
C         0.64986032691033    6.53501689782342    7.79564045722143
H         0.58881016890221    7.41425943250908    8.41815810538484
C         1.87871610319475    6.08952181438664    7.34363826175551
H         2.78050904000712    6.61877309286186    7.61394563375757
C         1.96465317518603    4.95729657770129    6.54917191931324
H         2.93470300316576    4.62458842188048    6.20687069621869
C         0.07340739829932    1.86401157647392    5.93274879602629
C        -0.61812085309268    0.97716890468012    5.11846724767194
H        -0.64707870436548    1.13457181517818    4.05030180517916
C        -1.27555913617175   -0.10428572900546    5.67878151492232
H        -1.81675388982158   -0.78592523240767    5.04120448921079
C        -1.23820145836590   -0.31061893493429    7.04711039094860
H        -1.75291023383728   -1.15342536263234    7.48186929718237
C        -0.53678034899860    0.56589659459831    7.85825121340276
H        -0.50106556814841    0.40798872230714    8.92510585810372
C         0.12186077509237    1.64897300517656    7.30409225373850
H         0.66349783219373    2.33454359628079    7.93989629493243
C         4.80137898517104    3.60912805357578    0.40071731270256
C         5.81288968507827    3.56443744961204    1.35769893541687
H         5.74594977250985    4.16542399839646    2.25401472599085
C         6.91310937899273    2.74687049525352    1.16927404162008
H         7.69536132817170    2.72928658986923    1.91343361443554
C         7.01180650568230    1.95343132917373    0.03862385627660
H         7.87270662706023    1.31853870336640   -0.10325619395757
C         5.99430896253641    1.96803144514576   -0.90101858039930
H         6.04976412203209    1.33949880446171   -1.77687330454286
C         4.89464096016234    2.78378134621527   -0.71669983478395
H         4.09328066818047    2.76645367400694   -1.43968919404514
C         3.82394669267225    5.78473731481736    1.89939303454006
C         4.98865793178536    6.53355462333230    1.72782427609272
H         5.59728211940971    6.39879168459765    0.84369478338807
C         5.38254678559517    7.43685836187832    2.69560383074651
H         6.28533058498943    8.01204671141198    2.55480548923985
C         4.62260087989512    7.60631992903158    3.84397243860651
H         4.93203096475320    8.31825508894467    4.59383200666251
C         3.46943536194712    6.86344136766548    4.02344073126426
H         2.86362838658664    6.99521552429844    4.90750512084097
C         3.07605995803995    5.95256576012091    3.05737078268460
H         2.16406160759117    5.38495810759682    3.19177460930438
C         3.33756628008055    5.64775770365156   -0.90374237299576
H         4.14903518986982    6.37114257866724   -0.77048962362444
H         3.61182707617199    4.99092432265318   -1.73529417090609
C         2.03388413084907    6.39662681515819   -1.24274326261944
C         2.41389577246679    7.64395703016898   -2.05476024597744
H         2.96334307583706    8.35237678599588   -1.43694739597609
H         1.52269534789080    8.14130902866446   -2.43369100990562
H         3.04145254173350    7.37588931301423   -2.90296553096058
C         1.31634584302113    6.87665310089974    0.03175859857778
H         0.71481566612364    7.76133289630282   -0.19980565599657
H         2.07472332853460    7.16945457931482    0.76509139823283
C         1.09556620771216    5.54280454841797   -2.11256928088632
H         1.41366094405842    5.59401292553311   -3.15766969775310
H         0.08334323868191    5.95841211087358   -2.05225092526500
C        -1.38738480929225    5.92749452857658   -0.03360384583336
C        -2.15825349617644    4.84694301856961   -0.43991050910829
H        -1.81087768254820    3.84389311597411   -0.23871956713633
C        -3.36479100164683    5.04631188368572   -1.08822108282252
H        -3.94597289507024    4.19448990637597   -1.40718904689011
C        -3.81727441075822    6.33219308397769   -1.32268740973037
H        -4.75394326871296    6.49370993083851   -1.83370829670500
C        -3.07457348889363    7.41688842983639   -0.87989043312048
H        -3.43959371471438    8.42137196785768   -1.03451714230634
C        -1.87097270013254    7.21974632418567   -0.23170928465872
H        -1.32005077910703    8.07532945790961    0.13560929735917
C        -0.29191024462851    6.49784116195255    2.38005902190416
C         0.36880758126029    7.56728759987122    2.96925299629965
H         1.25756287901336    7.98871290849690    2.52398092160976
C        -0.11529230040169    8.11739455054718    4.14446557495379
H         0.40330048882034    8.95201996153471    4.59245657286397
C        -1.25873896985318    7.61359325880926    4.73720025560268
H        -1.63378048863989    8.05444544153526    5.64763154226403
C        -1.92852185723119    6.55159081645472    4.15012292841433
H        -2.82942468177990    6.16246456274100    4.60039386541149
C        -1.44712972608528    5.99749033062910    2.98122842496391
H        -1.97436345280341    5.17895105814590    2.50480711978739
C        -0.56358728932136    3.24432639194457   -2.49487832592940
C        -1.15930341738903    2.05786047985119   -2.07634740149009
H        -0.74215270755758    1.52773301669600   -1.22881568583318
C        -2.28269812260302    1.57264017997231   -2.71722064866279
H        -2.74024487934909    0.65531809907811   -2.37872385695699
C        -2.82033223583740    2.26772057719591   -3.78843738948418
H        -3.70108752716824    1.89517144847220   -4.28897626385833
C        -2.22308620099492    3.44026354867155   -4.21841288280749
H        -2.63529908950570    3.98031816491327   -5.05768873517520
C        -1.09479096937918    3.92756435573478   -3.58227746829413
H        -0.64318763611708    4.83878564101052   -3.94382472328284
C         2.08909180882670    2.86337649416259   -2.76787376963531
C         2.08993205994129    1.47860616064917   -2.60154257305265
H         1.47807741471453    1.04373391495306   -1.82276468735253
C         2.87010876030465    0.67215596307996   -3.40549766191066
H         2.86301073459172   -0.39732334730005   -3.26103635144411
C         3.66172533645085    1.23971038050747   -4.39194073117988
H         4.27642736429657    0.61462789845705   -5.02129037974572
C         3.65985448864217    2.61184383567176   -4.56987925425695
H         4.27126514490083    3.05873968168353   -5.33972567024322
C         2.87634030775138    3.42425684455781   -3.76673791394691
H         2.90264455015776    4.49151500103890   -3.93529997731850

