54
CSD_code = LUWYOR | q = 0 | S = 0 | Stoichiometry = C20H30Cl2SiTi | MND = 12
Ti        2.94550915928403   12.63522215808745    2.48695217859574
Si        1.36082483940626   15.16287377254297    4.78207163860818
Cl        2.15083651322954   14.53088996648610    1.58689870821402
Cl        4.73306498659641   13.73975952921669    3.26329538027570
C         1.67348823740937   13.36713400919817    4.29500101555531
C         0.85486255417149   12.55213460394637    3.46415754493249
H        -0.05548362546556   12.87986013733646    2.97660089038711
C         1.33205051183548   11.23223420509029    3.51999677930074
H         0.83076369246996   10.36388895435048    3.11809553915796
C         2.47639504985406   11.21707302443982    4.35099074893162
H         3.01198772227333   10.33832045300635    4.68439489171629
C         2.65992095918340   12.51875241363235    4.84794427168210
H         3.39476113213994   12.81192840648607    5.58671670140389
C         2.45866330688472   10.99028049563632    0.80163753256719
C         3.49862633387976   10.47015688123370    1.62149827468202
C         4.61414531185188   11.34320814151697    1.52172086120425
C         4.27536645175151   12.39034960841584    0.61280287732953
C         2.94786927426698   12.15709672077637    0.16143969554112
C         0.94841742678143   15.08210725959809    6.66878901202908
H         1.84034485999022   14.78918709401843    7.22185229778538
H         0.65828357246966   16.07499203319836    7.00644522785538
C        -0.14411374132036   14.11303582363140    6.93369769514914
H         0.13340598760717   13.06934336715473    6.85040962955063
C        -1.39365639442165   14.44208365409003    7.21109940414190
H        -1.69900439142007   15.47240203909334    7.29482950779668
H        -2.16029382718208   13.70293678181328    7.37145488176174
C         2.88240540631682   16.28842082419818    4.55300055534941
H         2.68917556149054   17.28682391005050    4.93382855947913
H         3.14604867585845   16.37524385648178    3.50304296470526
H         3.75097775358616   15.89488013796179    5.07407708533021
C        -0.18176679200326   15.82667148407559    3.87688942066944
H        -1.06817773049427   15.26205545116894    4.15170887964768
H        -0.06642653188362   15.78092360679027    2.79893154514835
H        -0.35897265507974   16.86289809448446    4.14629565187170
C         5.96541641520781   11.06633195816869    2.11079199313813
H         6.59753055561580   11.95017281659119    2.07078335397060
H         6.45456974378732   10.26489270127849    1.55187799408084
H         5.88501806310158   10.75770559237847    3.15436807788268
C         3.54827315094598    9.09438389590367    2.21730503168363
H         2.58278957128955    8.77152431971654    2.60210717190800
H         4.28152649645384    9.03720683585719    3.01945948134189
H         3.85086215886844    8.38456513573417    1.44289354464971
C         1.17865716774953   10.31117733255427    0.41060208269863
H         1.03345458305075    9.38381604940892    0.96001060109070
H         1.21027705790421   10.06752015710911   -0.65347250233241
H         0.31519398505204   10.95909840741044    0.57374720720180
C         5.17567216230600   13.46691895713648    0.08753608188273
H         6.06287286506423   13.57462918656107    0.70795145393345
H         4.65230229086684   14.42523900314839    0.07222081537483
H         5.48882459772691   13.22878768683208   -0.93138570384258
C         2.25419553415514   12.85922281020729   -0.96479243739264
H         2.67477178981174   13.84805899543656   -1.13004276897772
H         1.18848547363410   12.96703775284784   -0.76497614052928
H         2.37400674611464   12.27474150644976   -1.88095318613919

