33
CSD_code = LUXFER | q = 0 | S = 0 | Stoichiometry = C14H12Cl2N4Pd | MND = 4
Pd        3.68148924698262    5.97126636677430    6.69195176058233
Cl        3.52611786024029    8.06674339016030    5.76220508013305
N         6.27678940983478    5.80237623630323    8.32082796246333
H         6.05200879986629    5.10216378082781    7.61092363375620
C         7.41836292444783    5.89340276297136    9.06943435253295
H         8.27856674117587    5.30050300439506    8.82586641575367
C         7.25847325558676    6.80459413643945   10.07048044662464
H         7.98804665156837    7.09080902045938   10.80057830763221
C         5.93014165235053    7.30327445048409    9.96858017043497
C         5.12974791418911    8.21613882130082   10.65083871435323
H         5.50495269700573    8.76529669144835   11.50052563809459
C         3.83544870847360    8.39182098625944   10.19647612678094
H         3.17317064633501    9.08351381550465   10.69197955758676
C         3.36338173116428    7.69450075841218    9.08523701445201
H         2.35380603238235    7.85146901271845    8.72031221343920
N         4.10999506630506    6.82571129903553    8.41218342173728
C         5.35114003322605    6.63484911780458    8.85597003084697
Cl        3.83726945647398    3.87690927718484    7.62269407602867
N         1.08650730736005    6.14039603344126    5.06247349066593
H         1.31117891293210    6.84071646067390    5.77229237534666
C        -0.05496769116015    6.04919304554283    4.31375002331838
H        -0.91520982629781    6.64213647588160    4.55708037025615
C         0.10505463342757    5.13777489306669    3.31293206836290
H        -0.62442510150512    4.85138525898764    2.58281543282233
C         1.43339272694941    4.63917080772210    3.41507930024304
C         2.23388181754108    3.72616879683208    2.73312356103821
H         1.85876145538604    3.17676375679418    1.88356271625629
C         3.52813615083789    3.55061112320363    3.18766324460155
H         4.19047866819621    2.85878832015689    2.69242953541889
C         4.00005507600181    4.24819078317469    4.29878940597103
H         5.00958109906992    4.09132301060893    4.66389093933979
N         3.25332860567929    5.11709302558298    4.97154579393961
C         2.01223733797333    5.30784527984594    4.52760681918646

