80
CSD_code = LUXFAL | q = 1 | S = 0 | Stoichiometry = C36H41FeP2(1+) | MND = 9
Fe       -1.06247542091797   -0.24001774373975   15.11358271012713
H         0.30169800236221    0.09696172408734   15.32130653906952
H        -2.31440454072114    0.40300433632187   15.22002034735338
P        -0.73408375119186    1.59072692179264   14.04073216292889
P        -1.02492808120846    0.71722117525123   17.03484380154975
C        -0.23440270805198   -1.73145974011133   13.95437111128789
C        -1.56096844404093   -1.47793439604217   13.51941255235655
C        -2.43803420267490   -1.74366426843923   14.61219041109849
C        -1.64978933633249   -2.14672649698578   15.73065427273135
C        -0.28898779659340   -2.13119579311542   15.32981394543172
C         0.98264896604071   -1.76772173015276   13.10241946243373
H         1.85472289225343   -1.43037892276484   13.65492595301578
H         0.86982940380315   -1.14454713502113   12.22057690292629
H         1.16352889684904   -2.79280070309206   12.77674117394922
C        -1.98272305622756   -1.11837230005731   12.13800191659386
H        -2.86993520842992   -0.49076473673447   12.15297886608547
H        -2.21344209881084   -2.02076997871510   11.57050322890607
H        -1.19075776691769   -0.58254985525732   11.62050618878296
C        -3.92327430355939   -1.80562283626908   14.53021681016011
H        -4.31974481743828   -1.03061461989391   13.87899574062544
H        -4.37915386940686   -1.71273474190325   15.51191769871384
H        -4.21486858385346   -2.77074783968510   14.11366245793265
C        -2.18142215145997   -2.63960498010255   17.03090493978626
H        -1.39694042324732   -2.66510361773727   17.78154931885469
H        -2.57062445934245   -3.65136307857480   16.90933601206421
H        -2.98957629344751   -2.00763065319036   17.39248314635440
C         0.87424027467953   -2.57793641903177   16.14146726298640
H         0.72422561585609   -2.35692301261308   17.19455882411170
H         1.78205772173235   -2.07836749300565   15.81609083404924
H         1.01445765124396   -3.65331801404690   16.03050825225327
C        -0.10781742407214    2.77390111838254   15.32159369983751
H         0.96893454937670    2.61551835032523   15.40907107328629
H        -0.27431880751254    3.80561731400890   14.99415073129913
C        -0.80332897516860    2.52215499587668   16.65574159813524
H        -1.82335893457912    2.92127354702996   16.61070755598616
H        -0.27971408029941    3.01913804691006   17.47949122139327
C        -2.10152188036053    2.52521300942010   13.29662207374381
C        -3.40200870820128    2.05048186470140   13.37941152535724
H        -3.57813960820921    1.11338961121794   13.88876252632348
C        -4.44816888112501    2.77635698525582   12.83824643723593
H        -5.45884782263920    2.40274493344346   12.90545549523449
C        -4.19540384744186    3.98511862270808   12.21108120016748
H        -5.00877583653611    4.55307832696115   11.78670921209645
C        -2.89822296462661    4.46921861013959   12.13035265868039
H        -2.70354897241079    5.41365445031048   11.64536306665090
C        -1.85187859865520    3.74515565206100   12.66996129423711
H        -0.83880739006581    4.11876800933471   12.60178932885223
C         0.56547137021987    1.59580140705758   12.78126212901896
C         0.27435586916495    1.74905084280003   11.42861035176211
H        -0.74344136007772    1.93050158974628   11.11254842019816
C         1.28912951882607    1.67997981835826   10.48981958452567
H         1.05889818034277    1.80553847843468    9.44277819769828
C         2.59515612295366    1.45073105882149   10.89064384687814
H         3.38443725059745    1.40318006628411   10.15667315980127
C         2.88625770546245    1.27019024660496   12.23423237374498
H         3.90165654353864    1.07631898147115   12.54514395928356
C         1.87427462971896    1.32924262108790   13.17300493519370
H         2.08800475903274    1.14739580233590   14.21718920181581
C        -2.48263822895055    0.82206759145971   18.11013351471266
C        -3.73174756436511    0.51113673214645   17.59036631209426
H        -3.79481484815579    0.18181354468178   16.56284017897443
C        -4.86666088742560    0.64148919782202   18.37008486277371
H        -5.83549864616747    0.39427948913924   17.96271634842380
C        -4.75627869281588    1.09239324697104   19.67547304944246
H        -5.63878962410651    1.19036057480664   20.28849789474089
C        -3.51419230727625    1.42687492756310   20.19248038333711
H        -3.43168453209195    1.79267725155929   21.20454691392977
C        -2.37765660219630    1.29654164954767   19.41537222603279
H        -1.41025265342878    1.56231011036781   19.81771576003512
C         0.32339503125615    0.23522448678385   18.14148256879004
C         1.62445710840683    0.62736167249885   17.84487733837073
H         1.80270378195412    1.27602006830948   16.99974830917863
C         2.67986811185268    0.18915214332026   18.62199282203044
H         3.68633634460825    0.50669422537770   18.39472148247166
C         2.44653793016650   -0.66082969185195   19.69201506259320
H         3.27055052497257   -1.00431661213026   20.29782619561451
C         1.15563391518177   -1.07287127376919   19.98066333366482
H         0.97336670546530   -1.73995830569324   20.80959568837033
C         0.09658683001852   -0.63275448357973   19.20636711878453
H        -0.91126621509835   -0.95172395758431   19.43359293268072

