64
CSD_code = LUXJUL | q = 0 | S = 0 | Stoichiometry = C28H15F12MnN4O4 | MND = 6
Mn        3.47231886535948   18.20641945504773    3.83724390958868
F         2.79316480694663   20.28859313687350   -0.37285572305797
F        -0.10552569064313   14.92502437893058    5.71796034901273
F         2.80937855266418   14.39025438764740    0.43087936381963
F         0.91226770181265   20.33113068469588    0.66596297211427
F         1.24060505596359   18.89986801471413   -0.90608708724576
O         2.57091036815355   19.04747354150381    2.31891056868350
F         4.78267613942814   15.18080642915094    0.11373642671137
O         1.73569545171917   17.49947714268230    4.31101742256122
F         5.89512630529574   16.24846058969888    7.00541045634526
N         6.61335374829536   20.58797456996298    1.67618906667750
F         4.30609945625370   14.20159551332798    1.96792142662731
F        -0.60501338758382   16.26974568824003    4.11395588479099
F         4.36941680468319   16.74840304063092    8.43804819287274
O         3.72189011070535   16.58766576209568    2.82489717021855
C         7.30422797530420   21.52184701194354    0.87149323265292
C         8.14342465826190   17.28507157765597    1.06961042731875
H         8.89070925554666   16.82866773971366    0.43985717051971
F        -0.67240120617965   16.95218053781679    6.15475195683923
N         5.68236133647564   21.11918680365365    2.46472186401402
C         8.59569481772093   23.41839496012911   -0.67438425556088
H         9.10128334258785   24.15335651503188   -1.28159712414359
C         6.89414399273754   19.23224599238053    1.72135465454159
N         5.01318077425865   18.96466666261651    3.24154533792554
C         6.56145282340462   22.40842839893194    0.10035260824556
H         5.48478909336489   22.34077899988198    0.11151608044098
N         3.21843977096491   19.94247250230546    4.71279141981243
O         4.22039528622173   17.41642650742499    5.36420386587457
C         7.86494488908560   18.63168023373800    0.92514302900320
H         8.39020228002658   19.21713773947403    0.18797382403213
C         0.02078956242345   16.18620194350726    5.28736782985610
C         3.69607471044670   16.58927826338609    6.15844164327511
C         9.33159107101326   22.54784722382699    0.11311525258304
H        10.40898413336781   22.61130808018852    0.12922801087616
C         2.36631649728975   16.14895974806676    6.15750147836151
H         2.03102432986278   15.44047578440843    6.89480451863007
C         1.48247078938262   16.64792521571114    5.20336184539104
C         6.48178977074955   17.09616435221528    2.79086045989761
H         5.95156048022848   16.52156351211367    3.53455421550628
C         7.48455397016879   16.52847134988485    2.02938115938500
H         7.73937473735724   15.49029183863163    2.16934236235992
C         6.12448508827846   18.43270580548779    2.60597843732911
C         2.77089515082962   17.26885860875081    0.74384337411298
H         2.56664812944117   16.95541679684213   -0.26588303002706
C         3.74863024995583   22.25564881349731    4.32128259175142
H         4.35422272268082   22.96555662658603    3.78228929667654
C         2.29382879623741   20.32698254363909    5.58818143035829
H         1.72731559349323   19.54080956623412    6.07044359920135
C         3.94149520359039   20.89819777867370    4.09273496359463
C         2.77792530050347   22.64223239081099    5.22720821265152
H         2.59350922869128   23.68656195853821    5.42510002186963
C         2.04383757783076   21.65732670083208    5.87704098336511
H         1.27950513727411   21.91498014554159    6.59226058899457
C         4.94904731267883   20.34506589894767    3.19591997110094
C         2.40515129688098   18.53821661905891    1.17096327202032
C         8.69259514634771   21.60146941245182    0.89360717887648
H         9.26275930229194   20.94558752420994    1.53385038813993
C         1.81543357113551   19.50522193415163    0.13695695315439
C         3.39803789952435   16.38064381424535    1.63058799639845
C         7.21177532138296   23.35214337883780   -0.67290846191268
H         6.63629117246950   24.03533159658872   -1.27822583693015
C         3.81657800992102   15.02570731953550    1.04311953798293
C         4.60191189460656   16.08416676406246    7.28902300380628
F         4.41577746284013   14.78744617267548    7.56224226014322

