94
CSD_code = LUXTOO | q = 0 | S = 0 | Stoichiometry = C38H52N2NiSi | MND = 7
Ni        9.81403594779245   14.14167265058457   13.80218449789921
Si       10.32777583673697   15.73191943328844   12.44959871757536
N         9.67971641119100   17.33443827627279   12.25595470352576
C         9.50192564515728   19.56269576844614   11.38794630343559
H         8.66994494876591   19.80086921902871   12.02475506409291
H         9.84462645461593   20.33465664868690   10.72397663491487
N        11.58892952464816   15.81838772173931   11.22858578522014
C        10.09992314726448   18.36210121938272   11.40476082824595
C        11.22083071931287   18.07365081479504   10.53724231781002
H        11.52324146321838   18.89209921163620    9.90226569419311
C        11.90015791334425   16.91750247343476   10.44946988311853
C        13.04909786874407   16.76316341891540    9.49796591090932
H        12.85093833047289   15.96372158678145    8.78539822902000
H        13.95771398133924   16.50216268879328   10.03898438119209
H        13.21629983128849   17.68749483883605    8.95260541124009
C         8.55838259777080   17.59649968596983   13.09448592548567
C         7.27396423672771   17.31554516607777   12.62444567896420
C         6.19516842741550   17.50914041826200   13.47579467156533
H         5.19518310967202   17.28794352664378   13.13377855570024
C         6.38438657082409   17.96856308575019   14.76513296424863
H         5.53557279409907   18.10971624320842   15.41914364061862
C         7.66087591464374   18.23556158293419   15.22074361244894
H         7.79942328154597   18.57942952540981   16.23471064965061
C         8.76332191771816   18.05584660908118   14.39675978500501
C         7.06182614252071   16.76102931249648   11.23679805971665
H         8.01312208721578   16.79711079352642   10.70065414370166
C         6.04865792918230   17.58574370663790   10.44262559160238
H         5.05930312046520   17.53911638342916   10.89087328331108
H         5.97855503488611   17.20835155825457    9.42458122374432
H         6.36211381330710   18.62628467653804   10.40364832661921
C         6.63052386011941   15.29670293308909   11.33914905112957
H         5.66600744781047   15.21455694292898   11.83523616346669
H         7.36796190387631   14.73713456644727   11.91468932919043
H         6.54892834962833   14.85507776244084   10.34844425449249
C        10.15679254837357   18.30821631304083   14.91884729678993
H        10.85561849708937   18.24241098945308   14.08134088363746
C        10.52343449020550   17.22005206720736   15.92992201204289
H         9.86696501295853   17.26552453965795   16.79635578186794
H        11.55134161715712   17.34187854667983   16.26429434571878
H        10.41967095849998   16.23617262539790   15.46266159424694
C        10.29301858144436   19.70309097810892   15.53035426993683
H         9.99806869526485   20.45956959216304   14.80695906255156
H        11.32708616478116   19.88374860323921   15.81631363944527
H         9.67236467789543   19.81173975341961   16.41631704946550
C        12.32486961379091   14.61390647027407   11.05423884032809
C        11.87795679243883   13.66714573291825   10.12869405269070
C        12.57050225276885   12.47029000621354   10.01147332737985
H        12.23497055174880   11.72300920218778    9.30843521856592
C        13.67737340765063   12.21270083094299   10.79701155405329
H        14.20474662240783   11.27481797981575   10.69731970569008
C        14.09687793414973   13.14711112168813   11.72366307177912
H        14.94792090513414   12.92583448659421   12.34966754183928
C        13.43004244656064   14.35573738129176   11.86885632652714
C        10.62490568486190   13.90574955158172    9.32026371312176
H        10.32444970880257   14.94972105641918    9.44218395588395
C         9.50331391065320   13.02394193184783    9.87406686671863
H         9.74028936922916   11.97187919137423    9.73159444050692
H         8.56557459213637   13.24105245534246    9.36797314635301
H         9.37922440607082   13.21223345993304   10.94100974068031
C        10.83349113796711   13.64585361151292    7.82746269806278
H        11.67153305333978   14.22662250514541    7.44751965331053
H         9.94098623435000   13.93112085475013    7.27474936973834
H        11.03024637766084   12.59481781379280    7.63145508142746
C        13.85950254016594   15.34072356017082   12.92985790326006
H        13.31579810770524   16.27664836283063   12.77570128507735
C        15.35682400875841   15.64789067174948   12.86620215458664
H        15.95210687941443   14.77486295663785   13.12161886313121
H        15.60154054253486   16.44097524144557   13.56940677584202
H        15.64139196689020   15.97481203445843   11.86816311373480
C        13.47469565384337   14.79305704838531   14.30605426807569
H        12.40056232526397   14.58237644764990   14.33149536270703
H        13.70650198262530   15.51907846921637   15.08193672430609
H        14.01518495399849   13.87223233189808   14.51512273014082
C         7.96459630209671   13.32161646773954   14.80606264154144
C         8.84395752406254   13.71578009168918   15.82536293252654
H         8.48016894342740   14.36198677907615   16.61482691047173
C        10.15169815829573   13.21084402277501   15.89317966982175
C        10.58176685543161   12.31053446186392   14.90561522477553
H        11.56525451128809   11.86301267879208   14.98375540095949
C         9.72405417908328   11.90009516386483   13.87389654063171
C         8.41583853435089   12.41039299258103   13.83745830522318
H         7.71881240189691   12.03249504993960   13.09783530727087
C         6.53829828684012   13.78814456954419   14.83136456737335
H         6.04943302371666   13.43613528165889   15.74065219745193
H         5.98860885402379   13.40970265751269   13.97263089227308
H         6.49085997955196   14.87684182139341   14.82192681107333
C        11.02371520996736   13.51470810316829   17.07668291302510
H        10.83711691689257   12.77737190825520   17.85985366380440
H        10.80730254907308   14.50112050151531   17.48061597232464
H        12.07731698370146   13.46815845655379   16.81046533360145
C        10.17416218364515   10.84350274200543   12.90677271879442
H        10.37104068322564    9.91290981991335   13.44081348614552
H        11.09336085985468   11.14675231871913   12.40613132212816
H         9.41365528965152   10.65599688526034   12.15224449449893

