92
CSD_code = LUXVOQ | q = 0 | S = 0 | Stoichiometry = C35H49N3NiO3Si | MND = 4
Ni        5.47844302723721   10.31552066946097    4.08328537633218
Si        5.43107624322476   10.84112958678959    1.86542082821849
O         2.72435374530138   10.21045949012773    5.11243888494907
O         6.35845529283340    7.51369319340448    4.02372319233960
O         7.35229437001583   12.25641392319846    5.26370045939228
N         3.81914480220484   11.51072186410547    1.18149661327665
N         6.48130240534048   12.17926257520033    1.15143797423925
N         5.73823288119586    9.57100445940143    0.68186614562435
C         2.47927842855145   12.26570705074105   -0.71773026067281
H         2.21527401195143   11.31925473637201   -1.19058388200505
H         2.55397705197588   13.02638443328026   -1.49031872890927
H         1.67534237920424   12.52031457237099   -0.03169343177381
C         3.78591788434726   12.09965978530071    0.00300174082188
C         4.93754720345143   12.56793124756449   -0.61844833535789
H         4.82739019384733   12.97931946072160   -1.61059476624724
C         6.19236130411281   12.68117594198465   -0.03960796597024
C         7.23552245914910   13.41906764846479   -0.83056286663878
H         6.87890745256715   14.40974408998039   -1.10449524631401
H         7.42468873573802   12.87339921442763   -1.75502814912469
H         8.16650172870418   13.51297568521996   -0.27887601525749
C         2.58538433279189   11.22135385076816    1.84003790359543
C         2.02723865551044   12.18134764261190    2.69568537045182
C         0.78367691040164   11.93042883225025    3.25983268759269
H         0.32677073655039   12.67060683265804    3.89603652282578
C         0.12225132247543   10.74008541067261    3.03547740869087
H        -0.83957452401517   10.55935964824895    3.49171534996835
C         0.70945048659588    9.77663604561075    2.24318222457319
H         0.20745661910932    8.83317231888190    2.09535301776159
C         1.93316691300545   10.00243254252988    1.62715200784788
C         2.75406027682772   13.46531332872447    3.02376732820509
H         3.82546846343007   13.27527513488830    2.91060618604672
C         2.34935468995749   14.58753696008162    2.06213833791923
H         2.71002026315971   14.39279282826193    1.05515841614727
H         2.76958818947858   15.53423609921760    2.39435218775125
H         1.26562874636941   14.68755795492300    2.03110185930001
C         2.50365417054588   13.90307953894090    4.46862319555524
H         1.49839677566946   14.29778339087968    4.59581250219054
H         3.20193586857743   14.68704771124451    4.74830013727107
H         2.64115673313094   13.06726604244168    5.15009869119388
C         2.53308226048957    8.90967693500704    0.77909837841521
H         3.41883753731846    9.30855531908071    0.28681025028169
C         1.56402198897176    8.41047994974233   -0.29540828955329
H         0.72290540936848    7.88101251421440    0.14440086792250
H         2.07600522656751    7.72488809979225   -0.96775836204519
H         1.17229152772038    9.23863344825972   -0.88305791104018
C         2.97175730325387    7.75454348142866    1.68286474412247
H         3.65045657411079    8.11988030765124    2.45277759489680
H         3.47879203544105    6.98664188354138    1.10167168562320
H         2.11448164180628    7.30117432977418    2.17512641059656
C         7.60420305757808   12.69311591907171    1.86947332014425
C         8.76285022219430   11.92985379283873    2.05104640024128
C         9.82318957721781   12.46532639417272    2.77062972948072
H        10.71532924765641   11.87565567662967    2.91325211822721
C         9.76081424936146   13.73674805195953    3.29911552706216
H        10.59395703967747   14.14027673389496    3.85474739950323
C         8.62040428119943   14.48816187583480    3.10879094560310
H         8.57339112892778   15.48487536967783    3.51898876789068
C         7.53204340461740   13.98806204916899    2.40630691608030
C         8.93096680165783   10.55940862458464    1.44845723045795
H         7.99247839560306   10.28229799301050    0.97775326903575
C         9.23650611194182    9.52029945956254    2.52730676570750
H        10.20305875675058    9.69719926149606    2.99198746232346
H         9.24436357317685    8.52018370183332    2.09858351529133
H         8.46940581229818    9.55794396266331    3.29958820117913
C        10.02690472787395   10.57999392241566    0.37860047434451
H         9.78471287911040   11.29620772867613   -0.40433196748195
H        10.12801453115315    9.59698576212545   -0.07584570901441
H        10.98657581006682   10.85678896351691    0.80851435233126
C         6.31060685499997   14.86885177287753    2.28344644331187
H         5.52998184430634   14.33485383019806    1.73445841944052
C         6.62666401901087   16.16183281328923    1.52572515697855
H         7.31317254195375   16.78500744408311    2.09323488753279
H         5.71205522469493   16.72756195550061    1.35991622238672
H         7.08179683686179   15.95124643256426    0.56148669120417
C         5.77654996914546   15.20320461448714    3.67771109608275
H         5.55056743820728   14.29189882200178    4.22565690105976
H         4.87355849455628   15.80352655705764    3.59580695681483
H         6.50658346841801   15.76944304036580    4.25018422777983
C         3.78671939251247   10.33010553388696    4.70694788958308
C         6.05428316877508    8.61398537301217    4.10917712633823
C         6.60400480593725   11.50204550809836    4.84171640027148
C         6.25201198940194    9.50447210101216   -0.67721828120494
H         6.80453705956907   10.42904300657787   -0.87524225673417
C         5.14228791075041    9.38185929325121   -1.72813331850575
H         4.57403261582793    8.46816766499694   -1.57287550437315
H         5.58400331722435    9.34735914705018   -2.72148392017337
H         4.46924676073129   10.23169542813805   -1.68041776778939
C         7.19153697102511    8.30475955348722   -0.81623018545674
H         7.95702048295906    8.31755083420614   -0.04689815120357
H         7.67517972379691    8.31385853698541   -1.79004927759730
H         6.62629734276066    7.37939473131095   -0.72051654050453
H         5.58870342293246    8.63555275197876    1.03104379530482

