31
CSD_code = LUXZIP | q = 0 | S = 0 | Stoichiometry = C9H18AuClN2 | MND = 2
Au        1.59538870244671    5.86295952892390    4.09968508870018
Cl       -0.48366203957107    5.83206343768502    3.24432730207244
N         4.57745689075761    5.96914058769229    4.15925662874058
N         3.75585803054020    5.83705240780848    6.15838112806510
C         3.45704424926727    5.89120325313084    4.86638114451173
C         5.77337512309181    5.96722167251415    4.99408356153814
H         6.35260696348571    6.88034552050193    4.83402206870091
H         6.40374456348065    5.10644566469832    4.75492784200337
C         5.19193157438400    5.88610055951399    6.40842724148385
H         5.51762337755510    4.98839402664734    6.94032262597321
H         5.44450181674745    6.76173072233350    7.01265108109875
C         4.65728222631803    6.01154287057757    2.71563841210451
H         3.61828817306243    6.04419501552175    2.36799745317132
C         5.32026456086924    4.74881630727809    2.16513955374504
H         6.37819594918512    4.71773405262027    2.41669536844995
H         5.22704659617115    4.73241531761135    1.08337564521526
H         4.83267823106884    3.86306763904350    2.56536759116161
C         5.37831467161557    7.27249609618398    2.24151984365598
H         4.93647224909571    8.15498863566065    2.69809057089068
H         5.28229509366234    7.36008479061193    1.16338836657646
H         6.43750323524206    7.23621068360773    2.48702580503857
C         2.79605218550312    5.79273006360464    7.23976409097081
H         1.81944073226651    5.66911727221597    6.75769534314459
C         3.05340340863632    4.59790090200706    8.15624581385240
H         3.13356417339654    3.68378145114276    7.57272559668941
H         2.22478916967268    4.48935491644575    8.84978502973234
H         3.96512849980877    4.73388681665067    8.73402626194859
C         2.79235728587118    7.10572207769865    8.02336493802914
H         3.72358849135326    7.24130114864154    8.56920998807056
H         1.97559837435756    7.09963386579660    8.73900682610662
H         2.65086744065772    7.94526269562936    7.34697178855726

