55
CSD_code = LUXZAG | q = 0 | S = 0 | Stoichiometry = C23H25Cl2N3OPd | MND = 6
C        10.03904014207531    7.15510967364621    5.57134140376760
C         8.78701445225268    6.31054312791094    5.87891807009399
H         8.14189283927473    6.25948465121581    5.00302669719251
H         8.23129290454388    6.72081063158684    6.71977289544403
H         9.09424651333721    5.29562767096305    6.11491888029548
C        11.05012165437590    7.01895460584751    6.72927154369569
H        11.40694887866396    5.99391164238545    6.76112897321495
H        10.58537759937924    7.26815250006266    7.67941942643380
H        11.90130962707175    7.67226478522996    6.55383320519769
C         8.53625879720687    8.40829193793513    3.28736176986430
C         6.78121328131872    8.34290290344905    1.49344367693644
H         7.56071649687376    7.78549681105866    0.96581908212368
C         5.56308533030644    7.43892025126526    1.64857001397994
H         5.84858094514967    6.53999970485073    2.18976053558151
H         5.21119141919711    7.14435687293446    0.66456511815435
H         4.75091136434330    7.93778693838081    2.17282050627950
C         6.47880955660058    9.62101435472477    0.71826549714755
H         5.71370483044744   10.21650260184794    1.21247994132297
H         6.12928422940114    9.36302958143938   -0.27647234036313
H         7.38434456405160   10.21403718420442    0.61560115984420
C         6.57615043784646    9.31892406406686    3.76780869815450
H         5.56830044763168    9.63866775873313    3.60718228296582
C         7.35635522683300    9.42464556539080    4.86896253778366
H         7.15326213694283    9.84969881759928    5.83037646806101
C         9.64003891835669    8.66428404816299    5.49021703207702
H         9.31599931620472    9.02620715762424    6.46751214745583
H        10.52316117768539    9.22663804280452    5.16608317338568
C        12.76856524136719    6.78205432232211    1.96226650957692
C        13.99875374975292    6.16723945870292    1.64876686518741
C        13.97123340434836    4.80318533728977    1.32118149878492
H        14.89193618093345    4.29256360588759    1.07728579628334
C        12.76686258680982    4.13849096918106    1.31025777480711
H        12.71050434316212    3.09099500593472    1.05978392559477
C        11.59361463566058    4.83096703041148    1.62361590661269
H        10.62842258864882    4.33509920266473    1.61263778522754
C        12.70865750263308    8.16997528685128    2.28921465035141
C        13.89156598555269    8.93974423618131    2.27290073126872
C        13.78654162233190   10.31169402907947    2.54641059071905
H        14.67721839888956   10.92297303307884    2.54134651075716
C        12.55794417703302   10.87116031474157    2.79885036570370
H        12.47944735887517   11.93243056104769    2.98780553419908
C        11.39101811644315   10.09315666676348    2.81841197902002
H        10.44277907832680   10.58347674230388    3.00504363873508
C        11.45796790141160    8.73881298764275    2.58558944670357
C        15.17852125680850    6.96668764872514    1.67362830848050
H        16.11960085627409    6.48998511172222    1.44052639470717
C        15.12343499934746    8.28943652382184    1.96714718513915
H        16.02465324548581    8.88600925886456    1.96840514673705
Cl        9.84693981422649    7.91120281731856    0.30816030584929
Cl        8.42904760303036    5.53012911601228    2.42106598181700
N         8.56158079179635    8.86248692559579    4.55604684172782
N         7.31212274893669    8.68362580615431    2.80685624513411
N        11.60381269069272    6.10884872986607    1.93693541990432
O        10.67477751954974    6.75740248611762    4.42665888270420
Pd       10.03266251429246    7.30700290038121    2.54491138217889

