40
CSD_code = LUYCUD | q = 0 | S = 0 | Stoichiometry = C12H20Cl2N4PdS | MND = 4
Pd        4.28815382795847    5.69721546245996    3.50982284135117
S         3.70069450437396    3.51340291410809    2.97541467936617
Cl        5.15132374197586    6.03566718401769    1.46945863113816
N         7.43406304081891    6.13864515793493    7.92226426630163
Cl        4.79335665078433    7.81167407111213    4.07067025498187
C         3.69653465949539    2.93121830033326    4.71223354676987
H         3.21881484865317    1.94990365389069    4.74069000653167
H         4.75712701030044    2.80223149287304    4.93153560447371
N         0.33553831038621   10.27160043552114    1.37247414637015
C         3.01563007567283    3.87971084345943    5.70027357191625
H         3.28083080596875    3.56068483939115    6.71829251258902
H         1.93467378747966    3.75624039514887    5.60781281149049
N         3.35636169106892    5.29753705388186    5.50447583077923
C         2.16572611294281    6.16273225175642    5.58040369611403
H         2.52835310809220    7.19016235663210    5.49043517416370
H         1.66847714474813    6.04455187381867    6.55487467059081
C         1.12236332859630    5.93544395268696    4.46509397225899
H         0.62635023714023    4.96839641282954    4.58393584473916
H         0.34979988125900    6.70436636714407    4.60155289052237
N         1.73358613407179    6.00900310490993    3.14707016873369
C         1.38506389221738    4.95532874453641    2.20984077597881
H         1.84813299605847    5.21701796895330    1.25301265321592
H         0.29415448501622    4.86207512305339    2.06292294595665
C         1.90126749501796    3.57279343502908    2.61411375014402
H         1.74443733711890    2.88438033341169    1.78310102402278
H         1.38739075525835    3.17870772625733    3.48834203361139
C         1.73648072475890    7.34069057086183    2.55073648107374
H         2.50815155021377    7.36632454232692    1.76996329303299
H         2.02903462142680    8.05683812268676    3.32330147407579
C         0.37499703660103    7.75464290326310    1.94892653962490
H         0.16637268563813    7.18980167612751    1.03652615179548
H        -0.43190289080659    7.57031430454339    2.66584419045838
C         0.36032810895523    9.15729801118151    1.62232470976444
C         4.34757819263813    5.75117057601242    6.49097917077840
H         4.01529441759191    5.50431098321556    7.51138075440843
H         4.43617765402486    6.83768651938195    6.39827576465234
C         5.74146975753352    5.15724275843143    6.23521151299574
H         5.75722621981680    4.07101160828338    6.36939920737355
H         6.06242321266950    5.41391260910602    5.19894174543417
C         6.69176284646427    5.71936335942756    7.16227070041978

