30
CSD_code = LUYSUV | q = 0 | S = 0 | Stoichiometry = C12H10Cl2N4OPd | MND = 4
Pd        2.49662960255167    5.03005533091658    8.61569703002561
Cl        3.46759934272125    3.11455675471877    8.11326272249024
Cl        2.00732809196682    4.29406306293675   10.65959074122117
O         0.32112235334095    9.23637379072039    9.85787857353984
N         2.84422966464025    5.88684309095154    6.81550896473520
N         1.64701194846072    6.79800242797153    8.95331830229813
N         1.08230061993296    7.08826529854592   10.13267313774461
N         0.23837974021210    6.97093477464058   12.56566806461533
C         3.46735659867030    5.38075323180323    5.75509690203808
H         3.84076465566547    4.36838228342815    5.86437813066647
C         3.63176135292240    6.09769904584630    4.58273674953288
H         4.14433112550362    5.65073909619176    3.74675483504517
C         3.12833450985271    7.39243849949917    4.50514468938411
H         3.24262064542963    7.97289207618960    3.60269781885689
C         2.48032355048609    7.92264202718382    5.60256529847171
H         2.07462959243180    8.92170270212946    5.58703387482600
C         2.34867357291207    7.14686968848289    6.75851576506145
C         1.69508008809564    7.61944765284991    7.94891892533932
H         1.27216277647602    8.61572198793536    7.99047373534627
C         0.46950673414206    8.24208959152734   10.54030694097667
C         0.00138269285325    8.12722876206664   11.95205947588865
C        -0.64303809802680    9.19474924600008   12.56800451631288
H        -0.80680208017890   10.10766651719422   12.01753035709613
C        -1.05303544531516    9.03872579745431   13.88313162751952
H        -1.55599762435738    9.84326176382764   14.39917667053926
C        -0.80534273819396    7.83433397776769   14.52177208859117
H        -1.10806684547405    7.67427860127043   15.54456946373881
C        -0.15413742389598    6.82927480569932   13.81370529840214
H         0.06399837259901    5.87016363588921   14.26279924285087
H         1.14019262357541    6.30554447836091   10.81923005684538

