33
CSD_code = LUYTAC | q = 0 | S = 0 | Stoichiometry = C13H12Cl2N4OPd | MND = 4
Pd        1.63349958137179    0.90011379778038   -0.07048758987387
Cl        1.96890789988797    2.39090661933327   -1.66785419859528
Cl        0.48198566546175    2.38603202517673    1.12396391713055
O         2.37137571056182   -1.31532085134842    3.84406984232444
N         2.57260005895414   -0.61038931025623   -1.00602757788294
N         1.40322882091213   -0.51780962508852    1.29179506084655
N         0.85698444170619   -0.24594489850746    2.50342620725717
N        -0.31465672463189    0.87865738325927    4.52194173465231
C         3.22444671695935   -0.56723748670567   -2.16474519355462
C         3.83583863411304   -1.68070421532176   -2.71262669466544
C         3.77496102557383   -2.88567810579493   -2.02222530087165
C         3.09783707750119   -2.93502935298461   -0.81956351213911
C         2.48997002734437   -1.77867475622532   -0.32204607881907
C         1.78702662893418   -1.71539507437601    0.94903148940880
C         1.41054677317966   -0.58458318210479    3.70998731721341
C         0.69713924703239    0.07599500680695    4.83935538760714
C         1.10608606773095   -0.14788180250982    6.14972109712442
C         0.42639376968376    0.50358058321885    7.16683579611921
C        -0.62475095498077    1.34340143486662    6.83583697348005
C        -0.95540203339362    1.49392837395690    5.49338418176927
C         1.49566432006063   -2.93825512690111    1.75303724696700
H         0.30441423724084    0.63376132239382    2.49930233710219
H         3.24458338803030    0.39877827326721   -2.65788979191769
H         4.35132332937710   -1.60396427537523   -3.65574340992187
H         4.25052871901148   -3.77053257765178   -2.41635519581234
H         3.05015250580290   -3.85422238535504   -0.25949078832769
H         1.93436833187898   -0.81134722382022    6.34212322548593
H         0.71447924799504    0.36004401911946    8.19789009844252
H        -1.17545372017410    1.87283096163363    7.59730883177885
H        -1.76560165419555    2.13822226658453    5.18060016381863
H         2.28952299435015   -3.12850309521981    2.47622561731685
H         0.57440504206690   -2.78845932643993    2.31545970404740
H         1.37839482464961   -3.80511939540609    1.10895910249053

