31
CSD_code = LUYTUW | q = 0 | S = 0 | Stoichiometry = C13H11ClN4OPd | MND = 4
Pd        1.59642751083883    3.46017350018549    1.96331391297998
Cl        2.55738682218817    2.07641132297981    0.40810521508900
O         1.54976399555448    6.85976783952108    4.17064553211049
N         0.49777198556915    2.00190092112762    2.86695890647862
N         1.09093431517316    4.24332806864143    4.74375475701457
N         1.27420373253380    4.66240564520238    3.51674914297858
N         2.40898316423784    5.11960272330094    1.19624326931945
C        -0.12469459490976    1.07030569440623    2.13730931187179
C        -0.51723199083221   -0.13603278639310    2.70577649087286
C        -0.29220205797444   -0.35789069704972    4.05580767464302
C         0.21270003325943    0.67170029986429    4.82327818751349
C         0.58605422036366    1.87203679742921    4.20506295979578
C         0.88839149306791    3.01800430052073    5.05642191225752
C         1.62542029181601    5.97232502724116    3.34491981519811
C         2.19508776510389    6.19878094501310    1.96755247717935
C         2.54853922370872    7.47616788057600    1.55522459195486
C         3.12864775674979    7.64440574614290    0.30845872329865
C         3.33970786913612    6.52390243603242   -0.48028349178271
C         2.96542059889492    5.27735176188196   -0.00096951757737
C        -0.45059369472593    1.39234714660148    0.71373122575256
H        -0.98929168491936   -0.88472989441093    2.09042395081486
H        -0.55147963999683   -1.30328804554753    4.50703950996981
H         0.32033451050709    0.57038192305147    5.89139263856136
H         0.83981376235449    2.83216240779002    6.12065473394982
H         2.36014846367749    8.30061812045652    2.22513100460317
H         3.41202818916310    8.62638965499240   -0.03828275167003
H         3.79077546171012    6.60650633138807   -1.45603955879022
H         3.12135205959251    4.37386486213689   -0.58118353584999
H         0.26156446762881    0.90908083266608    0.04454556119247
H        -1.45144684166255    1.03958371771025    0.47134823776146
H        -0.38281718783585    2.48083551655052    0.55110911249970

