31
CSD_code = LUYTIK | q = 0 | S = 0 | Stoichiometry = C13H11ClN4OPd | MND = 4
Pd        0.37983003796549    9.82545197758562    5.06750879258039
Cl        0.04090304480774    7.69972432222036    5.77925252012111
O        -0.58080717255526   14.00376634545124    6.46436959435960
N         0.62384384016654    9.24569431692539    3.14498097683964
N         0.51077133900305   11.62021065490295    4.25613127520550
N         0.21220899611499   12.75820249749181    4.80434774172339
N         0.42852905467053   10.60845508543020    6.94220245822823
C         0.64205991524791    8.01932440756081    2.63390657293899
H         0.37870873261719    7.21205788719971    3.30791383712602
C         0.97584823725108    7.76912912252825    1.31434861220657
H         0.97266147646265    6.75898525243077    0.93990943883126
C         1.31635142311964    8.84061714511185    0.49607871046288
H         1.59044476655880    8.67725091411504   -0.53515751698061
C         1.29936430988741   10.11581888326229    1.01881444507085
H         1.56202034923498   10.96544585502677    0.41093701826745
C         0.94112420450754   10.30900318203085    2.36136247084114
C         0.83288297949670   11.60264782515997    2.97717518412807
C        -0.10035433782076   12.94616610129451    6.08864908327877
C         0.22946926287092   11.90916347153913    7.17498302528654
C         0.32859004134986   12.44255887938704    8.45851844199196
H         0.13719384341075   13.49772971606588    8.57978743235167
C         0.65250574840999   11.62375948964828    9.52223426427816
H         0.73093794238709   12.02236100360598   10.52206492892389
C         0.87462470045381   10.27965195801038    9.26595457255489
H         1.13553642632754    9.59275907833683   10.05489809576308
C         0.75213880881238    9.81345291670690    7.96951689057970
H         0.89796695806703    8.76162357716845    7.74781397741657
C         0.98229135892267   12.86820610752591    2.18877211085341
H         0.71045466872584   13.70557754138908    2.82578880903739
H         0.33423627515178   12.85779465098768    1.31412345160898
H         2.01256276836869   12.99380983389577    1.85651278412914

