79
CSD_code = LUYXEJ | q = 0 | S = 0 | Stoichiometry = C30H42CrN4Si2 | MND = 4
Cr       -1.29589311824592    0.45430142889554    4.98748745432058
Si       -0.88611149380065    1.67924656289334    7.83804788114819
N         0.01463444056542   -0.87574587860007    4.58252487000694
N        -0.28202907770084    0.56096686386833    6.68198678533640
C         0.10775411207164   -1.61294537056354    3.48216080831659
H        -0.64133020459255   -1.42676164025002    2.72525461986729
C         1.10293659685186   -2.57089105072464    3.29269242014694
H         1.12355874222736   -3.13033370945517    2.36982295069452
C         2.03660813285031   -2.79652910122904    4.27502198315404
H         2.81372476737089   -3.53566160161791    4.15472826504779
C         1.96005548524009   -2.04793085626486    5.47191188584892
C         2.83534938881373   -2.19818993389551    6.56101243032582
H         3.63646572596290   -2.91843749555801    6.49611612916677
C         2.65988932003478   -1.43858009849840    7.69677338123443
H         3.33271475444100   -1.57104103507491    8.53239281332712
C         1.63681768576442   -0.50442905929244    7.80284155073851
H         1.51279273128276    0.06865873929823    8.70770357727316
C         0.75304697834029   -0.30114094970250    6.74378160157551
C         0.92073633411446   -1.09336800503384    5.57055932215855
C        -2.56921324552046    2.05319124358840    6.98694566347572
H        -3.33439971894451    1.35929678348392    7.32320779137789
H        -2.46299216005667    1.93846452666606    5.89518508598106
H        -2.93455303694058    3.05662216359020    7.17694064626836
C        -1.20971218981151    1.00016172485937    9.59761144265616
H        -1.55542401779381   -0.02785239970734    9.55803610114898
H        -1.96926544685172    1.58413246905720   10.10721297559250
H        -0.31471310163817    1.01959393253968   10.21030870071196
C         0.15267478219819    3.31411547004718    7.92771163275431
C         0.27576614455633    3.91989102539509    6.52803357508235
H         0.85907008280970    4.84067993977767    6.55991937264321
H        -0.70465120702230    4.15437605484403    6.11819622450747
H         0.77852470945629    3.22350354418181    5.85806577408429
C         1.56080977059841    3.03887936652803    8.45553082659232
H         2.14182136047920    3.96081708075728    8.49210807130284
H         2.08144251437070    2.33272538377672    7.81287575642882
H         1.52453481982643    2.62643666222711    9.46128602528652
C        -0.52529641868808    4.32854576136053    8.84939395412047
H         0.05339421209497    5.25142454507459    8.89070853648245
H        -0.60797085171376    3.93615889041937    9.85981304072828
H        -1.52413203759507    4.57219380711083    8.49524635511483
Si       -1.70567846333982    1.67924466653322    2.13693662034738
N        -2.60642129151808   -0.87574449880742    5.39246119796361
N        -2.30975672162242    0.56096389342018    3.29300222502772
C        -2.69953959761806   -1.61294331601922    6.49282538318479
H        -1.95045350675285   -1.42676016217681    7.24972971522641
C        -3.69472319835633   -2.57088725275972    6.68229606945882
H        -3.71534770255887   -3.13032599709653    7.60516782056573
C        -4.62839687093358   -2.79652514979134    5.69996816829906
H        -5.40551668530233   -3.53565361247874    5.82026517019818
C        -4.55184484716655   -2.04792791427122    4.50307771500609
C        -5.42713751272378   -2.19818922314823    3.41397582130668
H        -6.22825301515344   -2.91843775680301    3.47887231425609
C        -5.25167602024910   -1.43858188084228    2.27821360122982
H        -5.92450219206441   -1.57104157772232    1.44259476185523
C        -4.22860611921879   -0.50442822322412    2.17214599609372
H        -4.10458237456975    0.06865951796985    1.26728383244378
C        -3.34483648640864   -0.30114027064700    3.23120610087886
C        -3.51252558396085   -1.09336621229624    4.40442883023175
C        -0.02257351299651    2.05318613550656    2.98803353672979
H         0.74260640017224    1.35928573314543    2.65176844280007
H        -0.12879124685350    1.93846072079426    4.07979444464944
H         0.34277248979534    3.05661473965507    2.79803624038691
C        -1.38208580562982    1.00016132729946    0.37737143558427
H        -1.03637131252440   -0.02785186355914    0.41694698852792
H        -0.62253527210715    1.58413416360551   -0.13223230516973
H        -2.27708749939704    1.01959167568306   -0.23532242567281
C        -2.74446399355389    3.31411431493783    2.04727951491743
C        -2.86755099257350    3.91989285402115    3.44695707676461
H        -3.45085108066198    4.84068425599405    3.41507188390236
H        -1.88713139414718    4.15437523599799    3.85678968693448
H        -3.37030943376060    3.22350926780590    4.11692906310135
C        -4.15260219674523    3.03888197666823    1.51946691681977
H        -4.73361406196567    3.96081989956402    1.48289448524389
H        -4.67323153956099    2.33272786558462    2.16212442545312
H        -4.11633444519988    2.62643999163468    0.51371113671295
C        -2.06650050343508    4.32854295607535    1.12558947561687
H        -2.64518905709222    5.25142320034751    1.08427727264424
H        -1.98383015295233    3.93615541723447    0.11517000392153
H        -1.06766346471621    4.57218931739375    1.47973307452898

