97
CSD_code = LUYYAG | q = 0 | S = 0 | Stoichiometry = C36H54FeN4Si2 | MND = 4
Fe        1.69572820124828    3.93231692773081    2.78137896706860
Si       -1.34811959400735    3.79443540806935    3.61347064413959
Si        3.34319344461815    2.29470555583807    0.66465653724760
N         2.25365645470764    5.70638796406269    2.45816524617263
N         0.00111765343135    4.80225485227785    3.26720990570347
N         2.61138035929847    4.11322258334654    4.41847761190376
N         3.33088940939646    2.97948645340305    2.23777345879825
C         3.46182524194519    6.10868118006533    2.11137767371358
H         4.20352744651280    5.33598368113178    1.99163189486246
C         3.77976437473058    7.45508190431812    1.90688427552603
H         4.78414710289451    7.71893681985958    1.61383046362899
C         2.81627673488982    8.41453225719773    2.08316385468951
H         3.03418267970422    9.46167835035934    1.93299760964758
C         1.51952936648624    8.02452543697217    2.48231272100344
C         0.45210094184333    8.90745321178091    2.70777574622180
H         0.60134129704591    9.96620682101295    2.56274880268448
C        -0.77056599276295    8.41273103367746    3.10695842186604
H        -1.58760084947387    9.09994428446446    3.27696228828425
C        -0.99016783127224    7.05551712999194    3.30578183626070
H        -1.95768950195828    6.70391828822833    3.62490312161587
C         0.03392948350855    6.13234718478082    3.09606793169618
C         1.29724643130226    6.63613244514670    2.66461266583767
C         2.20407287493965    4.77362832920528    5.48611895521011
H         1.23197179892174    5.23374161552430    5.41674450373562
C         2.97509332567651    4.88155999136038    6.64765878205519
H         2.58007444480780    5.42556521862575    7.49163273168019
C         4.21683638653129    4.30214721353823    6.69419783005615
H         4.83573856852210    4.37248746314359    7.57652431610885
C         4.70015609673383    3.61569748979585    5.55923718979414
C         5.95992523679235    3.00244291512888    5.47357137826461
H         6.61998404775300    3.02792816578026    6.32677506056699
C         6.33787707670042    2.38039928256173    4.30389768895172
H         7.31192222665871    1.91529865016331    4.24371633652250
C         5.50883300398588    2.33516259471047    3.18979273684710
H         5.84162553998011    1.85121914377654    2.28680118808893
C         4.24155528182586    2.91497124099472    3.22236597236689
C         3.84143333240906    3.55668909676632    4.43260098981319
C        -2.36344776537617    4.25155223772556    5.19786782336126
H        -3.11460401271134    4.98577788562033    4.88440636488711
C        -1.50099845478701    4.92180760072038    6.26440224299370
H        -2.11383943619732    5.23622288169204    7.10921140319846
H        -1.00602700222647    5.80001491810136    5.85782163040714
H        -0.74310524763344    4.23566459946518    6.63312554178583
C        -3.12485475646597    3.08016008419630    5.81747213403888
H        -3.78000768773877    3.43461186538933    6.61319481358145
H        -2.43828038048296    2.35881844385180    6.25136346916385
H        -3.73537619139184    2.56883048038934    5.07886309711606
C        -2.57301067803328    3.97195282628373    2.12275302430038
H        -2.87678089864696    5.02449240776335    2.11240050078320
C        -1.85487919594410    3.71713599024893    0.80118938517237
H        -2.51085636941384    3.92621992159680   -0.04400541346260
H        -1.53082584198314    2.68203494753060    0.72792430977399
H        -0.98063387350794    4.35997908861262    0.72653173550460
C        -3.85343526890718    3.14525591173200    2.20259091451716
H        -4.47801798224820    3.33100481082060    1.32853942316161
H        -4.42870705637375    3.41028611162529    3.08547935309343
H        -3.63578712811965    2.08150557460783    2.23837844055558
C        -0.39872511944572    2.11854851572837    3.69733672994912
H         0.43925430105655    2.22197836652995    2.97667957437153
C         0.23997135388456    1.85564602640336    5.05720486619543
H         0.91082636784069    0.99804832873714    5.00488264993425
H        -0.51825843426724    1.63654658508786    5.80431645844911
H         0.81294775827486    2.71659051148022    5.38455822054754
C        -1.22764173529696    0.90753646711806    3.29125575069032
H        -0.63965533990854   -0.00749173184665    3.36326788109621
H        -1.58668319084629    0.99736384131920    2.26955141000688
H        -2.08865647568295    0.80456955584804    3.94802851305972
C         1.76594464586567    3.16252480171862   -0.03291070851379
H         1.11673590493482    3.35088653595213    0.84948402065062
C         0.98364795856194    2.30603969914164   -1.02028310778392
H         0.09958041523419    2.83432525002781   -1.37713463982121
H         0.66004544178061    1.37174690714670   -0.57093302306124
H         1.60337842357065    2.06888120496696   -1.88244110187352
C         2.03927170159879    4.52171631729761   -0.66533387159465
H         1.10482041993703    5.02563931063232   -0.91440288245307
H         2.60913843135207    4.40951662736938   -1.58440154706955
H         2.59599784147123    5.15798317710977    0.01435757363871
C         3.03554066531415    0.38167942175196    0.72299461592540
H         2.67952454265245    0.04315435583403   -0.25513952479187
C         1.95340467554079    0.06091103762513    1.74945715483909
H         1.78057564073093   -1.01389194661054    1.81042575208351
H         1.01608268014977    0.54172929984778    1.48556043970371
H         2.25701630528044    0.41668276352920    2.73222471886637
C         4.28528891041907   -0.43088808981308    1.05281084228360
H         4.05294063234482   -1.49598659342122    1.06519006523313
H         4.66590364174341   -0.15866939326137    2.03394637070323
H         5.06887906444073   -0.26939532780813    0.31752243195733
C         4.95021745889006    2.56214705984950   -0.37698047526347
H         5.69637186050969    1.85672038447028    0.00185081023739
C         5.55339792976073    3.95402337357280   -0.21399177238129
H         6.48384587540313    4.03339863227022   -0.77656816233992
H         5.77398615820040    4.14773947434591    0.83286327703289
H         4.87477742203972    4.72194247601688   -0.57303782842464
C         4.75134172755580    2.23440672216615   -1.85599504610227
H         5.69900931270819    2.29488832821191   -2.39089612531879
H         4.06129265225897    2.93362882035548   -2.32033336966862
H         4.35604530598250    1.22903613052844   -1.97907447355062

