57
CSD_code = LUYYAF | q = 0 | S = 0 | Stoichiometry = C19H31ClNOReS3 | MND = 5
Re        6.74198588777566    7.39299090221821    3.02058505566834
Cl        1.29487015497686    1.06605623015919    3.28382958051733
S         6.83659822875823    5.48971175890356    1.73808985204589
S         4.56167270756873    7.04402711714726    3.69451438334461
S         7.39275291096664    6.93297246024209    5.16948009532461
O         6.60309702916167    8.89009103608566    2.28510693955850
N         9.11912101006745    7.38790466461066    2.62756129274086
C         8.61161159565108    5.33118544191372    1.30579971918397
C         9.35482732808806    6.65631797850524    1.37624431416074
C         9.77176000284411    6.74784217167086    3.77526298661385
C         9.19738386288010    7.24157685993713    5.09545211516752
C         9.50552314166849    8.80464991210318    2.48306808894037
C        10.97378184793361    9.08752667780010    2.15581190569459
C        11.20731598653064   10.59437174996260    2.05717146263685
C        12.66405479339484   10.92352414109721    1.73870521625750
C        12.90526726734582   12.42908928505819    1.66172029750734
C        14.36146975325439   12.75227512271153    1.33415842248591
C        14.67221583801987   14.24885851520788    1.36954722771332
C        13.97978684388168   15.03292235599646    0.26109086596421
C         3.58814344019002    6.50264092908276    2.22270878736050
C         3.00860917063023    5.14856859646528    2.46190498696004
C         3.58105193085044    4.01577714192353    1.89693942453809
C         3.05932326022941    2.75917467008165    2.14506272537951
C         1.95500932123612    2.63436550194344    2.97106376625171
C         1.37218439530229    3.74999030094619    3.55053472053892
C         1.90322582820682    4.99945971850541    3.29327804537960
H         9.03240020312525    4.57956274519706    1.97653533924134
H         8.64997010139741    4.94142785273018    0.28849768899979
H         8.99557839969879    7.29392284089169    0.56337010679006
H        10.42781975558405    6.46554755802214    1.23285400657757
H        10.85678265769907    6.91340267010654    3.75417637281506
H         9.59592316866879    5.66954602243690    3.71701171704879
H         9.36603956764714    8.30654264866530    5.25102237738889
H         9.63663847853977    6.69252436475484    5.92874102831894
H         9.23885080227113    9.32040248960922    3.40773982554010
H         8.87614438925757    9.22831725884495    1.69519213474997
H        11.24855983652056    8.62560806702468    1.20573354889136
H        11.63047289367992    8.68594006629515    2.93040540960943
H        10.56254456203575   11.00953423677101    1.28031384631541
H        10.92937415869978   11.06613381619966    3.00201905752907
H        12.93963442554601   10.46521369434261    0.78583716221585
H        13.30927975137694   10.49436973880057    2.50957104337202
H        12.25117465122449   12.85346835844299    0.89893143451128
H        12.64158499316053   12.88522131634055    2.61875025265236
H        14.60571930616431   12.35754370319658    0.34508506273250
H        15.00409766468745   12.24533793173072    2.05874497406907
H        14.37697407749985   14.65461768685450    2.33976999697637
H        15.75240255408381   14.38078461932425    1.27205054211457
H        14.30077990284296   16.07187076128383    0.27787826453616
H        12.90021194902080   15.01157137101364    0.38222190004321
H        14.22683561908986   14.61437621795402   -0.71209728685659
H         2.81021808669320    7.25696152391567    2.10769389224103
H         4.25661959156258    6.52019448218321    1.36479126581837
H         4.44584115959843    4.11788221677720    1.25925791117619
H         3.50564309449801    1.88219018831449    1.70279992898244
H         0.51477744016057    3.63850067025007    4.19561152081639
H         1.46156322057777    5.87281164150881    3.74879739684812

