63
CSD_code = LUYYIP | q = 0 | S = 0 | Stoichiometry = C34H24ClN3Pt | MND = 4
Pt        5.49668838068308    6.26141629634695    7.34247536265725
C         4.52586465074261    7.62492366931494    8.43200696022003
C         3.31134249368145    8.26377831498340    8.21552150256278
H         2.73901438968947    8.03723277236560    7.32733095503427
C         2.81985095286363    9.18910162565019    9.12403989075016
H         1.87248635337255    9.67381988430969    8.93609004349393
C         3.53391183853904    9.49842252822945   10.27124399301034
H         3.14418637678073   10.22106175622456   10.97356925965755
C         4.74504926328888    8.88172152103682   10.51763069677661
H         5.29774996776391    9.12578859762609   11.41355637304824
C         5.24647273970820    7.94980475278925    9.61202369038922
C         6.50722872497152    7.23590032065997    9.78400383212287
C         7.40967066118722    7.34683833343140   10.83054083390665
H         7.22487662027680    8.05054303476425   11.62517430457833
C         8.57027794196782    6.56711357843655   10.84556536551775
C         8.78950995056240    5.69255107544833    9.77857381575044
H         9.66189351996386    5.06057993386796    9.77707676726047
C         7.86778684649102    5.62227839466850    8.74200018605926
C         7.98605524681594    4.76052629730243    7.56126164951319
C         9.06184797931250    3.90488161140073    7.32519224982984
H         9.87263496002021    3.84072231904765    8.03245498225332
C         9.08107422705917    3.13783700224290    6.17480749066445
H         9.90763114376147    2.47093474462404    5.97965333515921
C         8.02595715677535    3.23805890102065    5.27820134064469
H         8.00601953465886    2.65693108899239    4.37058029878619
C         6.99080981861195    4.10777277492083    5.57491428177201
H         6.14202305183252    4.23061465340775    4.91399600419108
C         9.52789592266157    6.66109646601586   11.94740127375340
C         9.09826671349821    6.91278730723764   13.25201220221864
H         8.04258027725295    7.00454657649709   13.45904788782400
C         9.99523270065090    7.00059242693781   14.29279562072194
H         9.64233088800996    7.18059486573033   15.29746551729751
C        11.36502466085812    6.84489582949681   14.06588642034332
C        11.80113373936920    6.59422866858236   12.76265063388592
H        12.85821255074654    6.48572445259381   12.56941270992803
C        10.89754956100577    6.50238794837349   11.72768068760813
H        11.26495492150679    6.34415854310558   10.72444978755651
C        13.41840424576750    6.13072964772916   15.13190831872478
C        14.63354703005727    6.63361511622161   15.59463231352614
H        14.69092566844292    7.65876989658925   15.93010963671086
C        15.75462223254514    5.82692472795892   15.62058480519329
H        16.69090081089365    6.22891645181549   15.97872443342538
C        15.68631348448472    4.51552614951784   15.17970420679276
H        16.56493515048245    3.88903852496361   15.19994950622703
C        14.48208013452234    4.01268966454148   14.71522585790353
H        14.41752075191403    2.98862545967421   14.37778588987682
C        13.35326715989000    4.80860183826631   14.69370722889020
H        12.41161853815942    4.41070139838206   14.34416226937305
C        12.05509376114982    7.85504836403112   16.15425639453591
C        11.51968212030541    9.11363864520145   15.88377467836280
H        11.27647586854094    9.38038886803600   14.86547568877899
C        11.31045047122606   10.01465628686201   16.90969253670306
H        10.89846458992759   10.98782442026300   16.68684254582159
C        11.63690434059673    9.68082305817122   18.21390697414292
H        11.47643031059115   10.38926598396238   19.01205586474019
C        12.17206064309121    8.43252687388700   18.48671187940497
H        12.42481214297082    8.16233185222859   19.50133494570161
C        12.37767636494850    7.52150663967568   17.46878281087712
H        12.78791686419948    6.54567668994064   17.68400050435128
Cl        4.09667743324647    6.04576854379921    5.64100906515394
N         6.75809639733613    6.38197855876105    8.76789654088217
N         6.97017855551228    4.84294736601502    6.67605222027170
N        12.27444820224941    6.93981010581558   15.11502467688073

