55
CSD_code = LUYYUZ | q = 0 | S = 0 | Stoichiometry = C26H21BF3NiO2P | MND = 5
Ni        7.07275380174055   13.96511051079783    3.43383196790289
P         7.19267588158284   12.87136134869317    1.56714317967309
F         3.51107275125548   14.48143779060774    4.92421378436566
O         3.99018530268004   12.87061424925922    3.22006821623811
B         3.81592092978689   14.33163097670188    3.61136359269558
F         5.08290812376477   14.95621383585370    3.34363172735872
O         5.92299222849515   12.61410576729934    4.33928748836226
F         2.88084207377883   14.86101378471587    2.78429090199917
C         6.06968089204801   13.60315335170852    0.33464628378425
C         5.82133654086257   14.96963943991592    0.41799133407159
H         6.29864043047084   15.54685968498021    1.20069111557297
C         4.94558466070354   15.56957690923380   -0.46767089752378
H         4.73926777594533   16.62581933094119   -0.38830637148140
C         4.31861918357023   14.80918586425911   -1.44068877623727
H         3.62383556066334   15.27349851882018   -2.12436928120338
C         4.57045910726387   13.44936924360385   -1.53106919755547
H         4.07727128023565   12.85701638271912   -2.28778894292751
C         5.44092674016945   12.84127193800074   -0.64532905519584
H         5.62575561397679   11.77790791180265   -0.70864137685677
C         8.73137556871431   12.53695566347282    0.65605863184587
C         9.74539975362106   11.88261510357571    1.35205162447550
H         9.57231863587402   11.59491473509925    2.38173218619589
C        10.94741114678911   11.60369033251173    0.73146500169671
H        11.72945770071611   11.08962437620445    1.27038129125086
C        11.14971111739187   11.99051324774165   -0.58500049673107
H        12.08964861238094   11.77610841468712   -1.07118977846684
C        10.15020779313484   12.65628225159197   -1.27453051447916
H        10.31182728611982   12.96178756498489   -2.29772184222376
C         8.94165543660743   12.93344865301454   -0.65792463456759
H         8.16144579261664   13.45411299051206   -1.19413749771731
C         7.86971121118108   15.75108884446316    4.24165545224363
C         7.24487132676646   17.01168619792315    4.15297413085926
H         7.45296390594032   17.64037874229593    3.29890750435488
C         6.38076042638838   17.42796244062765    5.13674076080487
H         5.90171989914388   18.39239685247005    5.05827946756993
C         6.09299000821648   16.60346343790788    6.22330402066159
H         5.38507829623054   16.93006842750777    6.96899027210957
C         6.70612136335099   15.37248570937047    6.34772360747487
H         6.48735834627713   14.74150212794387    7.19605817785339
C         7.60016046315271   14.93419419747532    5.37647183299364
H         8.18111707494360   14.02166516723106    5.54462476129811
C         8.56823714093289   15.12101690616296    3.14868165058268
H         9.43942652287241   14.50912053454402    3.39985589178590
H         8.71624182849826   15.71287819554642    2.24746778035343
C         6.47065072522524   11.20202935557980    1.74902054206551
C         5.39989099225607   11.07906916564704    2.64056230257085
C         4.71333080641850    9.88191343120479    2.75307042073828
H         3.88383332912194    9.80696823155317    3.43915678879574
C         5.10586854303165    8.79387484443408    1.99043732101378
H         4.57500780627229    7.85794279580938    2.07735161674438
C         6.18024928613093    8.90183367087621    1.12167613770914
H         6.48650620834008    8.04913858562677    0.53374316720516
C         6.85956612662197   10.10124781799277    0.99327188347320
H         7.69230813521754   10.18510331791989    0.30916623011192
C         5.09764250448121   12.27923082860474    3.48652861431897

