113
CSD_code = LUZBEP | q = 0 | S = 0 | Stoichiometry = C44H62ClN2P3W | MND = 5
W         2.60500279490109    1.09202143764225    4.01507359175393
Cl        4.69670687036010    0.15798812660555    3.59064799329420
P         0.00961365559430   -0.06860131115405    6.62931172820174
P         0.32306507314565    0.19239843475705    4.47182791774060
P         1.66967515204328   -1.34996296301218    3.65926982778255
N         3.05184855500505    2.17608467330119    5.37145889901652
N         2.13000189634738    1.89871268212157    2.47944520980498
C        -1.58898440811321   -0.97934393038197    6.53780885681240
C        -1.74653494639218   -2.12540272120627    7.30787638827895
H        -0.94355950036202   -2.44286689271263    7.96035149176884
C        -2.92437977640876   -2.85061976317020    7.25313538084516
H        -3.03802676884740   -3.73999093744148    7.85602073242332
C        -3.95425418278906   -2.43346207038909    6.42830556674080
H        -4.87369076439195   -2.99840448535529    6.38321463944190
C        -3.80671534315316   -1.28653970460969    5.66322578545841
H        -4.61215389595768   -0.95773931685164    5.02252645163058
C        -2.63178186917938   -0.56214099300623    5.71628192687697
H        -2.51097747383710    0.33361050081194    5.12041895207959
C        -0.66600470339743    1.59827815914591    6.99617935699099
C        -0.05928776879559    2.75335440707333    6.51230180706827
H         0.76171303434483    2.68053868189805    5.80416658906470
C        -0.49063994699351    3.99864964751579    6.93103824862526
H         0.00182075005928    4.88321337420737    6.55558250062760
C        -1.53308355824354    4.10751539369392    7.83597910966412
H        -1.86888028652064    5.08032329586775    8.16350715750997
C        -2.13961515430804    2.96205537368273    8.32567717033553
H        -2.95045172278245    3.03936249308831    9.03567866992544
C        -1.70328002726357    1.71523263765293    7.91933105000339
H        -2.16986693463540    0.82479967813330    8.31893159988719
C         3.29592801181672    3.21741953845699    6.19045261684499
C         3.59712118766451    4.49546102363960    5.64932151467341
C         3.86860057808214    5.54329944959256    6.50747559540261
H         4.11802460191370    6.51412501321284    6.10750334305615
C         3.82611251014401    5.37296110720422    7.88154781360203
H         4.04312530239044    6.20480831395900    8.53555818710112
C         3.50524873301289    4.13752668525851    8.41515615140062
H         3.47270330838461    4.01765447898465    9.48750292594156
C         3.23456476968236    3.05773977418780    7.59671537127330
C         2.91594686826402    1.69255531532455    8.15415521611268
H         2.34244292372223    1.15520231375535    7.38104748811747
C         4.21997910882532    0.92688334958603    8.39765730080019
H         4.78776512130479    0.84725963404630    7.47180169203862
H         4.01391075654524   -0.07419044815223    8.77166242070817
H         4.83158505045693    1.45223731675746    9.12866466515924
C         2.06259575258678    1.73518959174431    9.41883549438329
H         2.63864218573904    2.08584376329355   10.27172973161177
H         1.69367873086670    0.73697071110584    9.64823587202111
H         1.20682268679177    2.39218800512579    9.27884861610849
C         3.63505240980295    4.63781463002518    4.14702438778227
H         2.82508377437159    4.00402836884120    3.74301904097562
C         4.96549448900152    4.08751065320975    3.61550514641227
H         5.01363063469659    4.20170032700318    2.53468415509008
H         5.05733189961228    3.02591626902833    3.86436137931384
H         5.80150531663400    4.62257741658813    4.06315515258937
C         3.42044678203496    6.06476800017733    3.64856769983682
H         2.55578438552701    6.51788759521922    4.12852978425171
H         3.24974155938599    6.05109046901439    2.57382189123446
H         4.29294579586852    6.68399532174015    3.84566695533185
C         1.91002945081897    2.79625160277097    1.50561706673033
C         2.83430127056167    2.89989561956526    0.43248890872889
C         2.57650390771486    3.78604716993499   -0.59425902903599
H         3.26385478564817    3.86639595571324   -1.42213936103805
C         1.44075292337288    4.58031296828320   -0.58486851462357
H         1.25117131631797    5.25946787551332   -1.40299450973511
C         0.55776713798052    4.51064490193385    0.47785130264358
H        -0.31612019574076    5.14523468934793    0.48039451545482
C         0.77571848460801    3.64522574374448    1.53375908780999
C        -0.17609515084401    3.56302158186081    2.70286317682510
H         0.33583472119333    2.99572901599925    3.50164566765438
C        -1.44073161699848    2.79533634817609    2.31179237517735
H        -1.96990347738832    3.31209151685693    1.51366185162867
H        -2.10402640945436    2.70254141064916    3.16973447007387
H        -1.18163087143238    1.79755371932017    1.96397627555459
C        -0.53508082464329    4.94036779844655    3.25840124473981
H         0.36680567351289    5.49746202238491    3.49818654250006
H        -1.12727980347449    4.82827009571595    4.16435577052185
H        -1.11677887166024    5.51423145482517    2.54107072645114
C         4.06591458877538    2.02399277345584    0.48220358773405
H         4.40322979451218    2.00790694889087    1.53166758830261
C         3.70650038932756    0.58368692008888    0.09739132463268
H         2.98025394438095    0.18424609212847    0.80830347776332
H         4.59371544672736   -0.04588016032667    0.12382621224138
H         3.27821434894217    0.55025483536503   -0.90294795528360
C         5.21822014127292    2.53014601315605   -0.38089659511216
H         4.99277248310599    2.41774266229774   -1.43925374478458
H         6.11621525952890    1.95463231011441   -0.16540866474252
H         5.42548576460253    3.57811184445780   -0.17503388749552
C         0.44862264096372   -2.28670074043064    2.52025735963096
C         1.12845056657352   -3.50123795287572    1.89343614737627
H         0.51695400546044   -3.87481819712401    1.07259992475306
H         1.24772067086176   -4.30976695896762    2.61074959231267
H         2.10503873392433   -3.23354965055905    1.49108216666456
C        -0.85606101726615   -2.68316151351664    3.20132663619820
H        -1.56450637761958   -3.02969579437241    2.44987069961306
H        -1.29770642454013   -1.82811794301419    3.71239941927911
H        -0.71610573854419   -3.48201276078946    3.92305699218845
C         0.15523638365198   -1.26438497643081    1.41852446350900
H        -0.58023009169223   -1.66043902646089    0.72000408528438
H         1.06012521202936   -1.02479181325163    0.86049340617031
H        -0.24131295832336   -0.34100785226217    1.84420965513189
C         2.40675803383818   -2.49572049069125    5.01009881894978
C         1.41084789761108   -3.47082138896770    5.62683285043311
H         1.87034331442478   -3.96457467195624    6.48297294086519
H         1.11712176485797   -4.24117594380301    4.91846743913918
H         0.51962539784008   -2.94625776903883    5.97005725496807
C         3.56733899169956   -3.24046759567225    4.34067779539741
H         4.07737044953106   -3.86263475514592    5.07557451286694
H         4.28799211793575   -2.52999167205209    3.93504783872937
H         3.22647569422160   -3.88526038585496    3.53610395240725
C         2.98878011407821   -1.59739876912842    6.10912734370429
H         2.24201934679118   -1.37791228828970    6.87136549469975
H         3.37023518546584   -0.63849937942614    5.70753325804100
H         3.82535749024162   -2.09950933646041    6.59405883145944

