63
CSD_code = LUZCOA | q = 1 | S = 0 | Stoichiometry = C29H28N3O2Pt(1+) | MND = 4
Pt        4.22651661457179    3.67014180201559    7.87103431145348
O         1.26858510282670    0.94224608779957    8.65117513501956
O         4.59992496146203    5.46706722779616    4.20600188127177
N         3.02631757016133    2.29806587272832    8.84599974883242
N         4.91373486119169    4.86311895833221    6.32801723872781
N         5.62102911123671    4.14883655067026    9.40043349698426
C         2.93285285930007    1.68256573597748   10.17093940063678
C         1.70524880059362    0.74731889698142    9.99666488321594
H         1.95708029605076   -0.30794455649830   10.12540292308340
H         0.88041841899684    1.00468022433789   10.66512778597532
C         2.07166711917790    1.82598768775883    8.09370356242643
C         1.95776268666357    2.29039963898776    6.72268260192558
C         1.05632956491562    1.95698310301098    5.71385267251109
H         0.26923722532674    1.24078350027771    5.89246426874880
C         1.19200334556754    2.56547398232418    4.47127942458764
H         0.49572010743905    2.30883852335869    3.68791237536716
C         2.19298900187256    3.49140772596847    4.20084648886698
H         2.27396971812057    3.94461532680329    3.22491076228261
C         3.08968500827473    3.82078893738719    5.21527502806525
C         2.96089635283947    3.21908719851078    6.46319635357443
C         4.21713140662162    4.73554952191325    5.23319498952646
C         5.73651156208156    6.22823075842626    4.61516353021468
H         5.50462999209254    7.28767503173656    4.48481688526666
H         6.57721817649522    5.96166034190392    3.97014233080092
C         5.97639663417134    5.84405143749843    6.10076873887039
C         5.37452166254162    5.15731575785330   10.24783902304438
C         4.16904521556967    5.88672595576653   10.10678199102566
H         3.49066704020333    5.58756435631120    9.30445917335280
C         3.88562449474137    6.91856312809915   10.95042520448211
H         2.96689439594544    7.47415726278835   10.84367300015807
C         4.78887124944943    7.27546746197187   11.97543306945023
H         4.54065709815007    8.09686746964470   12.62895454227006
C         5.95795132072101    6.59535323604152   12.14007190882141
H         6.65194722363116    6.86409577855500   12.92168954276208
C         6.29196115983949    5.51449191280709   11.28527507290567
C         7.47014258991165    4.77922186733725   11.40143155993005
H         8.18454628228005    5.02290408857732   12.17429942978876
C         7.72761597110216    3.73007648447088   10.52090384609904
C         8.90186705116171    2.93700954700510   10.57275412290559
H         9.63455274545806    3.15518358300484   11.33458310557172
C         9.09694493347126    1.92570556028296    9.68079554490655
H         9.99266426542673    1.32646660384755    9.72520353431418
C         8.13377088665452    1.64563894970627    8.68698124737303
H         8.31443081178696    0.83884589810266    7.99366146086846
C         6.99112247819024    2.38314910067352    8.60347980720086
H         6.22808091334902    2.18995911911421    7.84574256793759
C         6.75471644205034    3.44252252965254    9.51273779844628
C         5.79113694782744    7.04263604820427    7.03163871238373
H         5.91154403948579    6.73640053418186    8.06780981017404
H         4.79799069545325    7.46992345425477    6.90986723805354
H         6.53303953208193    7.80395279131382    6.80596926430078
C         7.34749387083695    5.20037016888906    6.30492197835411
H         7.47489653626455    4.90670838559598    7.34367533462944
H         8.12957281339190    5.90923777421567    6.04666863406221
H         7.45153530033938    4.31629457826493    5.67947088565559
C         2.68266857122405    2.75274919610814   11.23346841968987
H         3.53505012805560    3.42403045371272   11.29993879193559
H         2.53397218484422    2.28353869080603   12.20219586048525
H         1.79970903268513    3.33765231944081   10.98510425727753
C         4.20644409303437    0.89497417184362   10.47819234695235
H         5.05679342144080    1.56815764173989   10.55316347746668
H         4.40608845173816    0.17067174658518    9.69118342379125
H         4.09631165160719    0.36868687723441   11.42244819292737

