45
CSD_code = LUZDEQ | q = 1 | S = 0 | Stoichiometry = C17H23ClIrN2O(1+) | MND = 8
Ir       -1.01243028552982    4.02718265621443   12.49272922341846
Cl       -2.98723641902053    3.43083202761229   11.34600114165521
O        -2.69377138655997    4.62655340006088   14.89858156823253
N        -2.22510464280211    5.10083381361784   13.69577822798010
N        -1.22499890250667    5.79812273524246   11.48858645333841
C        -0.39397142474253    1.89858826328304   12.73719578020122
C        -0.02917480085881    2.59758376403961   13.92120090667800
C         0.91678457327935    3.62465836181978   13.56047710885097
C         1.17475765742538    3.51254794960238   12.15402360256239
C         0.32523021979779    2.49513679646863   11.62748209216407
C        -1.21794113064927    0.66388045597082   12.62440262373908
C        -0.39811341255548    2.23521754524426   15.32214360510119
C         1.69782566084974    4.45448958214763   14.52133696656992
C         2.24052338305668    4.25588712664644   11.42427364852320
C         0.34592476749289    1.91530265387276   10.25260055453330
C        -2.62709698225844    6.27566215787112   13.32653689694673
C        -3.56965483106755    7.11877053334529   14.10545358620927
C        -2.08432181844952    6.68560744604285   12.04396330915299
C        -2.43277544854812    7.86575283563613   11.38852619247982
C        -1.89577694586939    8.13064012870768   10.14294522476338
C        -1.02666383121255    7.20480458962241    9.57848114359134
C        -0.72345965990062    6.05465016527612   10.28323092693582
H        -2.69476920966081    3.65709861899838   14.85933171214901
H        -1.99320273722254    0.78487626696443   11.86930675683935
H        -0.58024826058912   -0.16485862227358   12.31579096087232
H        -1.68951277629087    0.40462419319792   13.56779814290825
H        -1.31264352396127    1.64779872029533   15.35875886994389
H         0.40120521698440    1.63031943396973   15.75246680641442
H        -0.51364641259379    3.11718766802575   15.94909166887576
H         2.05457843015381    5.36903620690320   14.05483573309945
H         1.10577538892802    4.71527737739721   15.39500065443200
H         2.56681853509132    3.89000917268970   14.86269739654321
H         3.20922881818596    3.83090952341084   11.69063756518686
H         2.12489025580290    4.17141060277106   10.34734793408274
H         2.25604656442350    5.30932686357202   11.69696306269723
H         0.89857614470782    0.97517287134259   10.26278193950581
H        -0.66515702257572    1.70482165555723    9.91079508120245
H         0.82248232071349    2.58216403974964    9.53948979763473
H        -3.11148181949762    8.07692706304761   14.34393723483645
H        -4.46881990886234    7.30662169859173   13.52055172607057
H        -3.84639891920966    6.61712543130168   15.02822207119211
H        -3.12351814218464    8.55192163077993   11.84982023214546
H        -2.15498292243284    9.03481442290303    9.61556850395054
H        -0.59387375476455    7.36862537541504    8.60536369096797
H        -0.06240060451584    5.31018479704357    9.86489167482242

