66
CSD_code = LUZGAP | q = 0 | S = 0 | Stoichiometry = C31H32O2Ti | MND = 12
Ti        5.06328766128955    5.80045751987657    5.08825388275642
O         6.94753837891508    8.35671970857942    7.35038414117619
O         4.78567589463291    8.58636533543843    6.70144158635004
C         5.93372566247510    4.06749931643716    5.84281024056431
C         6.71070211182094    4.23169486039792    6.92567493523968
C         6.87351455836621    5.62844550827266    7.47538007388366
H         7.79727302701329    6.07093444548916    7.08491643545665
H         6.97288990725960    5.61109916704922    8.56700353096673
C         5.64665797083043    6.41866919781722    7.03730692330134
H         4.80236472336238    6.14695250943829    7.68611175384568
C         5.73466389952347    7.88077948143014    7.01273336895961
C         7.20487170822420    9.77442910111555    7.46983466792338
C         6.98601793576665   10.49369485166434    6.13914039993347
H         7.58480177354002   10.03143118147082    5.35673264614115
H         7.28144520576905   11.53497750965157    6.23703913830870
H         5.93621670241849   10.45113517199840    5.86220005832837
C         6.31356085905490   10.37082592416493    8.55997144482195
H         6.46488854409041    9.83938065808874    9.49715951517070
H         5.26875719505942   10.28675783738761    8.27307882255002
H         6.55786477919679   11.41953232107787    8.70438950164482
C         8.67680178673740    9.85061805512880    7.88007814549056
H         8.83417110814380    9.29656776271712    8.80166372479076
H         8.96876395528106   10.88536249049308    8.03284297501538
H         9.30459671553255    9.41620296872530    7.10611026367584
C         5.62881366170052    2.72170580366476    5.34605495745197
C         5.95020087586746    2.29023929564159    4.05651332803958
H         6.48630273221404    2.95020197842688    3.38853588941667
C         5.62144379921777    1.01641567310110    3.63107948221410
H         5.88645401190678    0.70090489432502    2.63158122816393
C         4.95950292597136    0.14247207229606    4.47700691624198
H         4.70091477222922   -0.85036587277473    4.14001212085315
C         4.63931630956880    0.55087756564452    5.76184199280760
H         4.13161484894095   -0.12744223558310    6.43256630721441
C         4.97048419229837    1.82011011693958    6.19148617720636
H         4.72573343227807    2.13230803837569    7.19760772480628
C         7.43556032788653    3.12834103541600    7.58869633311786
C         8.20612628645055    2.23868139163685    6.84241418312806
H         8.28448042896459    2.37603971240685    5.77390078842486
C         8.87323516811998    1.19483375841864    7.45423473629362
H         9.46754237845099    0.51587412933239    6.85986568606734
C         8.78246688597858    1.01746085652341    8.82464755174878
H         9.30181448622609    0.20006699243820    9.30302891252721
C         8.02065896410906    1.89425708539134    9.57783737369995
H         7.94150681456983    1.75952521453091   10.64726728415983
C         7.35626656278532    2.94152559268101    8.96706954534794
H         6.74896325207089    3.60664505111175    9.56436854243014
C         3.17785656100826    4.36316547234090    4.66589030161467
H         3.19429243745502    3.32013966558532    4.38044564419951
C         3.05596555123493    5.45041172612210    3.78873959440013
H         2.96703868904978    5.37590066815608    2.71286792896269
C         2.91469445221519    6.62396834673003    4.55753540816433
H         2.70340182291728    7.61610598130341    4.18142323507239
C         2.92064932692953    6.25778708462580    5.91444533121925
H         2.70503915319626    6.92400299453056    6.73941428412618
C         3.09994001806307    4.85765362474817    5.98772587547177
H         3.04068384458070    4.25224445068146    6.88449341828844
C         5.40637963388995    6.88237573999322    2.92779584787165
H         4.66164716151668    7.21464169941030    2.21763295880514
C         5.99106576307565    7.67503541924191    3.92475181838178
H         5.75425187610062    8.71113461387010    4.11986239109358
C         7.03437971930552    6.93264903443798    4.51694667485274
H         7.78317347729565    7.32033988722365    5.19381832409661
C         7.07217327041360    5.66171844426086    3.89604105252241
H         7.85742222044006    4.92755883839301    4.02843587153324
C         6.05004617585792    5.63174626819631    2.92045420192773
H         5.88094366274197    4.84770900612615    2.19220459960318

