57
CSD_code = LUZHUJ | q = 1 | S = 0 | Stoichiometry = C28H22AgN6(1+) | MND = 3
Ag        8.86765881001359   11.01863828737163   17.73294293403930
N        10.25596237568541   12.98147621850508   17.53420902640698
C         9.65314359009666   13.97174515030645   16.86115125110917
C        10.06475147020843   15.29955864532265   16.97003824422141
H         9.54622456666866   16.07169396600764   16.42528602654944
C        11.13490000299839   15.60585832916552   17.79049735827009
H        11.47322584308936   16.62542551136691   17.89430800118036
C        11.76741610341278   14.57554192077930   18.47072361912046
H        12.61437885079490   14.76688073755803   19.10953000662594
C        11.28824545102779   13.28563368626593   18.30954270189103
H        11.76233506916294   12.45395148474032   18.81379762408139
N         7.09046016671017   12.29085941247942   15.12637735093394
N         7.97146601408732   12.39791029166188   16.10964910415773
C         8.56722688118740   13.58341556220253   15.97450645596889
C         8.02499617892321   14.25619657293662   14.86565339204287
H         8.28889227592541   15.22036645081819   14.48525583590369
C         7.09319206012756   13.38589033144712   14.34769645355632
H         6.44498199402801   13.48542995246091   13.50024354886843
C         6.39783434054929   11.04324462259743   14.93109589429761
H         5.65848693371885   11.17701000346072   14.13698008451403
H         5.87886349748671   10.80279422155416   15.86129202226942
C         7.40335749385186    9.97231330022904   14.54607645447198
C         8.26838175755755   10.26486360418549   13.51734509835733
H         8.19075851485649   11.21452218551708   13.00578815621010
C         9.26637056169184    9.37149984988557   13.09196989099408
C        10.15030164016000    9.67223329609495   12.03420239160040
H        10.05827302290198   10.62397469943226   11.53189408287648
C        11.10318539601005    8.77050673294938   11.65205202566938
H        11.77580717799320    9.00092378973345   10.84008151235228
C        11.21816071765582    7.53307530024776   12.30836518201859
H        11.97751646261299    6.83564948263806   11.98927199014390
C        10.37737911521195    7.21312584758311   13.33687631495214
H        10.46046505389683    6.26218239795371   13.84215944886459
C         9.38060023250911    8.12116496926418   13.75235471786771
C         8.47533667223935    7.82928686666405   14.78639687674649
H         8.54916548148648    6.86525980634192   15.27118046037048
C         7.50213256067994    8.71464193289978   15.18733639431754
C         6.57112502298526    8.25200702688221   16.28689575068518
H         5.82108757769741    9.00527275172229   16.53716780821703
H         6.04861151571268    7.34649785782626   15.96650563906146
N         7.30838583997431    7.93163491338828   17.48441783782924
N         8.03570309777716    8.85050190665045   18.10257388863758
C         8.53841453947670    8.27582439410779   19.19829713566704
C         8.11708512557768    6.93567824108625   19.26069220250386
H         8.33705016671416    6.20535831279444   20.01013571784604
N         9.39054774884950   10.36315586524873   19.96521876809911
C         7.33202667366492    6.76187224661633   18.14506866944617
H         6.79865744718870    5.89963612895549   17.79861700244709
C         9.32454942217964    9.03857882677600   20.15660910834016
C         9.93961604146318    8.41989073382835   21.24537053249155
H         9.88086988520730    7.35071787497714   21.36595964199381
C        10.62462737884742    9.19579875855190   22.16219680488908
H        11.10955289572723    8.74067706527755   23.01222626109382
C        10.66727215598190   10.56911684579603   21.97197815861806
H        11.17445763884290   11.21410356645882   22.67093159294567
C        10.03741138296069   11.09983209202835   20.85793754037743
H        10.03701410594384   12.16689917040278   20.67947200498719

