83
CSD_code = LUZKIC | q = 0 | S = 0 | Stoichiometry = C38H41ClN2Ti | MND = 8
Ti        4.51382499448146    5.90814190710347    4.99953314232720
Cl        4.77594282792281    5.94348892679277    2.79801579759647
N         4.33883038301173    4.09911812162981    5.33147402756456
N         2.68972841376640    6.06540946804076    5.22248644672648
C         3.17631349773269    3.84556073529647    6.15296364107827
H         3.42377470824503    4.01444012400186    7.22182551819451
C         2.06183346938095    4.87477226121863    5.75515257960023
H         1.48594810025173    5.09825990857300    6.67192972656887
C         2.61549763400310    2.44648747985989    5.99923893476013
C         2.73800552158094    1.75921203101291    4.79752411632932
H         3.29173382229407    2.20487131643887    3.98336197152496
C         2.15210533118227    0.51991847680439    4.64028738653223
H         2.25163758369422   -0.00062574686453    3.69890513820079
C         1.42715626776379   -0.06650270116807    5.67160877640344
C         1.31738496247236    0.61819314206246    6.87295684922097
H         0.76398688660113    0.17891399353010    7.69097762457555
C         1.90522192467355    1.85984640710980    7.03620767676862
H         1.80588689742039    2.37932505567046    7.98021581973017
C         0.79675609374695   -1.41286488220402    5.48385447516244
H         1.56334033745226   -2.18775433982706    5.46976890650841
H         0.26416289151368   -1.45542263914288    4.53564987278889
H         0.10060463213438   -1.63431334432076    6.28892367933664
C         1.12474078282147    4.26854300979995    4.72795481357645
C        -0.07654178614139    3.68570461433898    5.10880019889201
H        -0.36844261300708    3.68500106224597    6.15008085389485
C        -0.89668152802128    3.09274092506118    4.16925404798628
H        -1.82543165940473    2.63663055510336    4.48150583855229
C        -0.54291021451223    3.07360857644423    2.82555491392499
C         0.65241947202069    3.66992003535829    2.44841098252178
H         0.94446156461313    3.67048458438799    1.40810727468304
C         1.48029777728542    4.25981544436894    3.38581020214218
H         2.41573537175618    4.71537631101663    3.07764329208190
C        -1.44473871915772    2.42935007454786    1.81668132934108
H        -0.97309288829177    2.39654233318160    0.83800122651834
H        -2.37647800316884    2.98840091683065    1.73205626152992
H        -1.69323893403920    1.41369851474748    2.12106293687789
C         5.37825039381848    3.20549619250652    5.35466755261473
C         6.36991716142643    3.31534337431287    4.36106878978913
H         6.24981357702362    4.05986380954879    3.58145486802679
C         7.45837234653045    2.46879972645599    4.34462434968358
H         8.20188339524685    2.57327693114918    3.56678319645584
C         7.60157354884069    1.48207842195797    5.30920478017265
H         8.45492363064596    0.82134396866019    5.29445241132663
C         6.62845263760617    1.35033806020871    6.28501763612954
H         6.72331786883212    0.58247224607278    7.03970830206807
C         5.53255512825957    2.19022225534296    6.31498288217377
H         4.79464820869559    2.05647095954570    7.09162654718546
C         1.87381610236216    7.09940427160079    4.83503130746950
C         0.54184889055223    7.25230379385007    5.25507725669061
H         0.08378081272558    6.52116478616126    5.90290315054981
C        -0.20942604598034    8.33782019502617    4.84899400932865
H        -1.22956412250630    8.42906977538364    5.19418193568247
C         0.32394739600601    9.30118040574906    4.01104734083142
H        -0.27089388068039   10.14540420499305    3.69769691568292
C         1.63016232612276    9.15574724220798    3.56816045292556
H         2.05436313903690    9.88741538644393    2.89476412485355
C         2.39254013096532    8.07875795251284    3.96681467355510
H         3.40082036181655    7.96000267639568    3.58411507831119
C         5.14251540464125    6.74103557403496    7.03390074937699
C         4.87058209785522    7.86832418095080    6.20223553566487
C         5.80398095626988    7.85123089755151    5.13806964627195
C         6.66696680970933    6.73202381648637    5.32101763306065
C         6.27978480375627    6.05845342103343    6.50669805654978
C         4.48827992249287    6.49578797376511    8.36333575153904
H         4.72523877491177    5.50326399586162    8.74471936876009
H         3.40319531555394    6.59712982457312    8.29222533962379
H         4.84243211721403    7.22773886440654    9.09443092988898
C         3.92626422757145    8.97257836595795    6.58401568696498
H         4.34722891809203    9.53520810977468    7.42220773245853
H         2.95670323134114    8.58285591373542    6.89694215202844
H         3.76055707051641    9.66410797130538    5.76106771872309
C         6.01092478881936    8.89820032560014    4.08169036372004
H         6.97850274306512    9.38429855457048    4.22826294290938
H         5.23765418603492    9.66315176637676    4.12412910311016
H         6.01000526148977    8.45616431475645    3.08273844627900
C         7.87528253592589    6.46094140600660    4.47278647523612
H         7.61742943698204    6.47865122841660    3.41195334549693
H         8.31526635602240    5.49354165634931    4.70793012390278
H         8.63183003081063    7.23117042265874    4.64437431676964
C         7.07563932350023    5.01949590041565    7.24436413934015
H         7.73038037304142    5.51452030825528    7.96733063664284
H         7.69891020800237    4.43419904513227    6.57129841879764
H         6.43456629496673    4.32925686688800    7.79191154534032

