68
CSD_code = LUZKEY | q = 0 | S = 0 | Stoichiometry = C33H31ClN2Ti | MND = 8
Ti        0.46154568874223    1.59745061336876    3.59925807216511
Cl        1.38052764320736    3.27727162932249    4.69968624004421
N         0.00142272601558    0.43480119814446    4.93729845155619
N        -1.31031627099493    2.11847286452801    3.56627415852162
C         0.67209389865474    0.11256500163326    1.85141335291118
H        -0.02201475294718   -0.68320731316618    1.60746731880397
C         1.85325466740225   -0.03974796799364    2.61383228966139
H         2.19269567722871   -0.96140488591573    3.07112283483809
C         2.56877469766838    1.16773925215331    2.55324244346311
H         3.55269809488426    1.34674728582726    2.96834312695465
C         1.84865127863946    2.06568586410990    1.74015754821803
H         2.19671186141360    3.04055169386733    1.41965001581030
C         0.68105023467631    1.41652828849537    1.29633491491575
H        -0.01083252883237    1.80390074348677    0.55666729933704
C         0.87133230016315   -0.38558477479568    5.62327492290188
C         2.19793632342829    0.04789181115745    5.80367771529650
H         2.47622952568534    1.04130154699433    5.46349715801452
C         3.12504597212860   -0.74607575017343    6.44641798065852
H         4.13568427065479   -0.38634799445299    6.57621577586846
C         2.76709477245897   -1.99224515842275    6.93836495254868
H         3.49336998465582   -2.61021695588164    7.44363823665226
C         1.46291262919439   -2.42858335574730    6.78138289962183
H         1.16933208928583   -3.39635014805559    7.16229597201832
C         0.52526398839467   -1.64366229853831    6.13910538795620
H        -0.47687420330848   -2.02664216070257    6.01687009798943
C        -1.40113817459954    0.40985043825584    5.30733842362365
H        -1.78819198588268   -0.62118947666307    5.32046265667740
C        -1.54369775571472    1.00976940345069    6.69153143755121
C        -1.21634510046176    2.34606736709575    6.89811631786702
H        -0.89783931318634    2.95436011064637    6.05791100773695
C        -1.29367618794436    2.89489559202168    8.16364890679537
H        -1.03137818465323    3.93271677155387    8.31007097030487
C        -1.69799580624255    2.12991340144899    9.25220254910091
C        -2.03012219331600    0.79933971925065    9.03779812057884
H        -2.34876873187856    0.18809438334296    9.87019474752829
C        -1.95239764332397    0.24345052453660    7.77319130748830
H        -2.21316827279488   -0.79604415349989    7.63132107676395
C        -1.79640495112015    2.73270783574713   10.62041823486091
H        -1.09451052059033    3.55549932234716   10.73233138499293
H        -1.59520357637729    1.98833296346048   11.38739384367923
H        -2.80196754356902    3.12207033353876   10.78443362216630
C        -1.84098755316240    3.19005026346798    2.89136555095202
C        -0.96499040161178    4.16806849547233    2.38045336542217
H         0.10168391861135    4.07689961804012    2.57071686909509
C        -1.44160024723946    5.25587795241692    1.67983094172682
H        -0.74517413793103    5.99157224508060    1.30353067524178
C        -2.80188651118953    5.41734418139799    1.46183163809184
H        -3.17095215109275    6.26968432034841    0.91252947545679
C        -3.67793539541756    4.47148428823187    1.96462058320100
H        -4.74099696065299    4.58319031296627    1.80594492381992
C        -3.21619756236885    3.37468609195493    2.66635836981786
H        -3.93164962499215    2.65032326436983    3.02451025762652
C        -2.21551334770427    1.22388689933103    4.25639998501036
H        -2.96830538303073    1.81396176652684    4.81139522912730
C        -2.96535689440884    0.26820925972628    3.34185626221736
C        -3.93587386315688   -0.56598764836074    3.88779204688481
H        -4.16058976043432   -0.50260653903654    4.94375694109764
C        -4.62494782835092   -1.46413022667803    3.09485259001778
H        -5.37466510134916   -2.10209860088117    3.54067481252779
C        -4.37169169881826   -1.55223457556078    1.73183659343602
C        -3.42003845297896   -0.70083060765184    1.18547977942805
H        -3.22132993745142   -0.73823544891534    0.12366196551088
C        -2.72802297462029    0.19931626524442    1.97621007335215
H        -2.01763772989027    0.87459193122966    1.52033421931897
C        -5.09828175732058   -2.53707106233285    0.86808291310032
H        -4.43564185105902   -3.36064479660083    0.60112185672823
H        -5.43163023445442   -2.06645980666249   -0.05475294415492
H        -5.96147118475886   -2.94752140890049    1.38585125150535

