50
CSD_code = LUZKIA | q = 0 | S = 0 | Stoichiometry = C12H26AgNO10 | MND = 8
Ag       -0.59490743179329    2.30600123408836    2.70796379376995
O         0.37352862305392    1.36545513937547    4.78828940822245
H        -0.49498852523120    1.34116548997139    5.20910856136875
H         0.46476530017530    0.48068381969077    4.41304564611011
O        -2.08574226890982    3.28292265565397    1.01706678151909
O        -2.78888422189184    1.49808800641950    1.94937795033366
O        -4.08053120779623    2.61068004782726    0.67092726381864
N        -3.00220230875282    2.47174772222013    1.20000544807416
O         0.82207059298407    0.17153758181382    2.01024972241923
O         1.56917799232706    2.79348493283839    1.35689489750441
O         0.19526840961209    4.80637950377892    2.92961831375429
O        -2.12655144744259    3.79095462595512    4.27038287681982
O        -2.43457176993522    0.95654740613477    5.17766481452004
O        -0.73525398414883   -1.14584197224101    3.92709290994185
C         1.94812798258545    0.45325914118526    1.21740033588339
H         1.66225853037216    0.49484268822927    0.15652307308285
H         2.71287555100179   -0.32741917532447    1.35160486214090
C         2.52091972603947    1.79790388675462    1.64047592856490
H         2.74156768883589    1.77968552114202    2.71628940229675
H         3.45045165835955    1.98798808021456    1.08199584095075
C         2.02509375611391    4.09996518173787    1.61815188479667
H         2.71506929414130    4.42128266373279    0.82325835095448
H         2.54549400251974    4.13518939036082    2.58450661225780
C         0.81943055109833    5.02384686679953    1.68463103535287
H         1.14053261324830    6.07370158071832    1.60358190883691
H         0.13039806039642    4.78332066158403    0.86635414623780
C        -1.01122787370377    5.52076493447333    3.08040087208456
H        -1.69722020924487    5.27887998148405    2.26039203218382
H        -0.80848494426068    6.60285847425957    3.08750330408419
C        -1.63842344065427    5.10415476998723    4.40126533894805
H        -0.88056170003745    5.15101056658730    5.19658539096364
H        -2.46533486175498    5.78696870715338    4.65087903926628
C        -2.77409876231344    3.32018464198357    5.42770749183286
H        -3.56058807089485    4.03121582564062    5.72501474810620
H        -2.05876713135833    3.21787018688499    6.25713270909710
C        -3.41275981428316    1.97345441864175    5.12312290073818
H        -4.20439900426877    1.76014512860683    5.85779269177726
H        -3.85203546194388    2.01206740025078    4.11990519389112
C        -2.93172614440316   -0.27710928613638    4.69659245474171
H        -3.28654589074579   -0.15090662134795    3.66781323567029
H        -3.77639989704781   -0.60372926583195    5.32315364658854
C        -1.83976361813615   -1.34630747264552    4.77332398098436
H        -1.42041389573129   -1.36101211125019    5.78271386157743
H        -2.30478256940251   -2.32109154187087    4.56059533822352
C        -1.02358003969011   -1.23572602702230    2.54211433653332
H        -1.68691020120447   -0.42420361884243    2.22731340372675
H        -1.49060674802554   -2.20585623237601    2.31877169972220
C         0.28594563185883   -1.11039618351831    1.77923023644567
H         1.00081451121940   -1.87470208526491    2.12240745264184
H         0.09117296906894   -1.25990727051328    0.70780687063768

