63
CSD_code = LUZLID | q = 0 | S = 0 | Stoichiometry = C32H28FNTi | MND = 12
Ti        5.60098701750025    8.12120738171315    3.77671493108758
F        -0.97392452116440    4.21972766244970    5.32968063993247
N         4.09841071226521    7.26019122539387    3.00753166246190
C         7.46966345901807    7.15051025434667    2.72422201159034
H         7.92934148248666    6.20220996308066    2.97268418506880
C         7.85284747985392    8.42656524692796    3.20776939019536
H         8.64174528661733    8.62613362664874    3.92257993104423
C         7.17033965993883    9.39429886799306    2.45192652167146
H         7.33456749669724   10.46336356167276    2.49285174762763
C         6.36873207523088    8.72892716844576    1.50384579863545
H         5.81035871150550    9.19661328785982    0.70478869613716
C         6.56302862789827    7.34822667837363    1.66064883642367
H         6.15881713210016    6.57370917963876    1.02097801353642
C         4.69620733532491    8.60738315565496    5.89411439343190
H         4.16823486697655    7.88848198362811    6.50844896308446
C         4.11446613649626    9.47553879368778    4.94370125525367
H         3.05995805255963    9.54324058123303    4.70016911508415
C         5.11717289807222   10.37423591792188    4.51659913732670
H         4.96178473658488   11.24602778199845    3.89184727561401
C         6.29326944332444   10.09283462842315    5.23684085963092
H         7.20580376212954   10.67181581140699    5.20676784392343
C         6.04593244227340    9.00067215768547    6.06944005515828
H         6.72678136819315    8.59491947206638    6.80434384464096
C         3.29560473640188    7.78464565547866    2.02921188315221
C         3.32498689281317    9.17039371788885    1.77006690006837
H         3.98276751499048    9.80503011213614    2.35089418747842
C         2.53335963412285    9.74412745652776    0.79757434449344
H         2.58560451905687   10.81187818968672    0.63436721288006
C         1.67453176782396    8.97094931617858    0.03294858294775
H         1.05458847923849    9.42225417936005   -0.72609060394142
C         1.62761137672541    7.60792540100919    0.26727594067549
H         0.96509105356056    6.98413735731693   -0.31583104076204
C         2.41403261844533    7.02135707846436    1.23830695136660
H         2.32856504744411    5.95655121266514    1.38121902521837
C         3.99394496250480    5.83000734769330    3.23538846418268
H         4.20681024780610    5.27200447038975    2.30088407534205
C         2.63176920303400    5.40700364539228    3.75870750521656
C         1.92012046099698    6.25267612302625    4.60012345445598
H         2.32914520293853    7.22603223561761    4.83267957960717
C         0.70419236142507    5.86307650349577    5.13004965237929
H         0.13927715112494    6.51255257123583    5.78002570193070
C         0.21315101287481    4.60929435349723    4.81510985884887
C         0.90438530462872    3.74160010727379    3.99037097648567
H         0.49306221748952    2.76987943332908    3.76695147184689
C         2.11733430239711    4.14960767474843    3.46567672188890
H         2.66724185046062    3.48165339653378    2.81779146656260
C         4.98980509381364    5.43148340133483    4.29232144131282
H         4.92674254102050    4.39925340617681    4.63650159833493
C         5.84745473290569    6.32632165162831    4.77420011694367
C         6.67320952350434    5.99043489040825    5.93757219750666
C         6.04075930641084    5.46599433712801    7.07139963540910
H         4.97074137562865    5.30913981182873    7.04594333052625
C         6.75415397884346    5.15434288422355    8.21043719396201
H         6.23792551957913    4.75222221334027    9.07115047103524
C         8.13004746258881    5.34601408020016    8.26771312667450
C         8.76453948695718    5.86160521335621    7.14502370201882
H         9.83494309935124    6.01475381841898    7.16440569117408
C         8.05421407818121    6.18341420135418    6.00345980958143
H         8.58737078939762    6.57666703730992    5.15014378179945
C         8.89667288149082    5.02273475063263    9.51375579204142
H         8.80176856693199    5.83640232332220   10.23401768665428
H         9.95307465382748    4.88454217649357    9.29615170294170
H         8.51097332937867    4.11850187565538    9.98020530120322

