36
CSD_code = LUZMEA | q = 0 | S = 0 | Stoichiometry = C13H18BrN3Ni | MND = 7
Ni       -0.23483557702731    0.76246209779875    2.18256115074663
Br       -0.92739519457440    0.49930232478585    4.28716901369283
N         2.38526082368673   -0.10884378212106    2.99955608819351
N         1.24572389367242   -1.75466264024490    2.28721486279712
N         3.16313749302803   -1.18898259910474    3.16323603166237
C        -1.99891753433080    1.36187002449391    1.07865876833594
H        -3.04586003952270    1.17582679663724    1.26321512570077
C        -1.16504489723660    0.65201137811350    0.23191915151436
H        -1.42938725003454   -0.19179450351314   -0.38601964256203
C         0.11340099359681    1.30920715275071    0.24940217604738
H         0.93970241661949    1.06158510593440   -0.40380998577601
C        -0.00802609383315    2.52010745735889    0.98588501807465
H         0.72813370672546    3.30599313527848    1.04182932899592
C        -1.27120410820496    2.50923273637034    1.57235001965422
H        -1.71056480118030    3.30001220739580    2.16231945840875
C         0.36109034785738   -4.18762438723712   -0.12120613092188
H         0.10051641143860   -5.01378636737682    0.51967976923931
H         0.53860747380257   -4.42306487307389   -1.15619761316057
C         0.43673061261452   -2.95248746619268    0.33434461064579
H         0.69518675183000   -2.13043865972999   -0.31979326605451
C         0.17322146717452   -2.56544941380861    1.75886476336604
H        -0.74058260104621   -1.95090178511853    1.82131498096112
H         0.04722802113853   -3.44933730129543    2.38860636568631
C         2.45920919746998   -2.18056682421238    2.72511652749934
H         2.78295482750294   -3.20044869912708    2.70908497122203
C         1.20317769644510   -0.40757792455750    2.45353245608736
C         2.80494352829227    1.19360718672630    3.47892081912826
H         1.98681535218032    1.88575754536712    3.21574748838260
C         2.95441750815868    1.13367141960486    4.99475099879898
H         2.00797607714396    0.85316135736003    5.45147617131688
H         3.24865646250623    2.10718760289301    5.37464650361005
H         3.71158564938554    0.40146864307799    5.26285681187063
C         4.09659714251457    1.60116613057579    2.78245940785193
H         4.87705871046062    0.87851380593657    3.00661362448505
H         4.41046998461727    2.58067085459124    3.13073419983260
H         3.95531554713295    1.64335226366777    1.70465997466043

