36
CSD_code = LUZMOK | q = 0 | S = 0 | Stoichiometry = C13H18ClN3Ni | MND = 7
Ni        4.72415795655794    5.37660087886398    5.63910208046948
Cl        5.21641570108786    5.01678059665704    3.64224706313633
C         6.06005561067051    6.91725983886042    6.11191886351828
H         6.66054889633218    7.53527689933393    5.46017492623792
C         6.54912950237992    5.74914775944641    6.79946932011134
H         7.54770563432458    5.35191777240737    6.71060328383020
C         5.54752821792786    5.31116489718381    7.64729416581994
H         5.60386568992292    4.50996686951525    8.36727365718838
C         4.42306926716418    6.21033507814182    7.49784062751632
H         3.54965838731616    6.19911470597519    8.13429828706479
C         4.80311094005727    7.26268915574745    6.64077196439175
H         4.24994217877722    8.16743137930977    6.44574151562260
C         3.31152309998245    4.17260886196568    5.43140144356385
N         1.37931691480248    3.29501905084676    4.75493022441994
N         2.09177187565459    4.41596708550496    4.94400417247186
C         1.57857599545644    5.70723228831029    4.53228882487162
H         2.32157915801512    6.44387462818433    4.88039297250716
C         1.50751862028755    5.73869031904440    3.00874919117163
H         2.49706093882243    5.55781335713911    2.59373232376401
H         1.15832084083507    6.71040265254519    2.67297125117629
H         0.82465187446777    4.97099775045444    2.65292345777076
C         0.22439878984741    5.95207701390369    5.18458518640764
H        -0.47278488100755    5.17445423906577    4.88351904121386
H        -0.16569357208875    6.91699847116643    4.87507124953804
H         0.31380437703190    5.94382376053257    6.26837857586857
C         2.16184564810411    2.33395043585739    5.12409812060611
H         1.90212943151432    1.29571577036750    5.10489975997621
N         3.36013788357591    2.81944088093612    5.53870362582736
C         4.49768414647875    2.06983786643335    6.00196001636543
H         5.38605857077791    2.70184307540662    5.83406080485223
H         4.60253525170504    1.16753608803252    5.39103011793800
C         4.41847198100243    1.69875209745097    7.45497778659370
H         5.23145521055463    1.06660201329668    7.78365656369321
C         3.48422110493829    2.09365801874295    8.29800214379813
H         2.66902751497744    2.73260948157968    7.99992323682153
H         3.49790124174928    1.79810896179320    9.33220415387660

