58
CSD_code = LUZMUP | q = 0 | S = 0 | Stoichiometry = C26H26AsCl2PPtS | MND = 4
Pt       11.13130453416638    6.65837972341049    3.64347785718194
As        9.43408791474772    6.92527412904815    5.26471990470565
C         9.46167751946061    6.66558424991168    7.18018014892496
C         9.74169736594477    7.72574567613258    8.03431597739338
H         9.95600804642884    8.70191593869649    7.61077283816584
C         9.76389812634940    7.52015378564375    9.40304860318420
H         9.98094928464160    8.34242351927139   10.06927913279440
C         9.51363018961609    6.25890384211854    9.91925579031128
H         9.53169658826719    6.10090289859996   10.98746132428677
C         9.25146016114205    5.19607280092423    9.06952583910980
H         9.06825066995616    4.21180780482964    9.47578758229331
C         9.23230888213542    5.39626525065556    7.70033503183487
H         9.04247119047464    4.57017420997024    7.01945166938028
C         8.41273628638443    8.59341990844158    4.99167736157404
H         8.89837356028956    9.54656085261120    5.20954118019621
C         7.14646262168693    8.33834783210866    5.76403457328956
C         6.50753981818086    9.45809358683621    6.51442289857621
H         5.63422684298692    9.12518053811023    7.06797790087226
H         6.20203523719070   10.24512550624291    5.82335592627261
H         7.22170710719541    9.89075709616792    7.21494594229426
C         6.71312351168823    7.08236019336082    5.59969968661940
C         5.47539284029572    6.43818344566443    6.13093263919491
H         4.98327476697427    7.06649112902451    6.86756742946713
H         5.72330271715099    5.48485710341979    6.59825794037742
H         4.77046372711453    6.24053473081237    5.32089368148373
C         7.61993033475967    6.30656210357977    4.68723279014588
H         7.40273081427854    5.23693569091080    4.63176173022332
C         7.56770058832790    6.99617286694098    3.30920975167574
H         6.53418737198785    7.02826774192256    2.93748454062088
C         8.11476961845468    8.42597061332263    3.49154494722185
H         9.05421305548354    8.56122635393448    2.93113858229303
H         7.39897426756279    9.17086762487720    3.13501185146206
C         7.29647969892549    4.94120044727649    1.21748458359497
C         6.16465038411623    4.46364791790502    1.86450028743049
H         5.93040473086220    4.78157301852775    2.87003679623765
C         5.32709926058852    3.57178372658806    1.21677531662149
H         4.44558771804208    3.20335264904647    1.72041425462525
C         5.61855332990590    3.14983025635880   -0.06927000529897
H         4.96172768748165    2.45436072815702   -0.56957453814926
C         6.75589208483060    3.61404515709350   -0.71159935332651
H         6.98889025403891    3.28002918563628   -1.71131263794154
C         7.59551078439577    4.50350059784433   -0.06945886966277
H         8.48983383356609    4.86822353746081   -0.55671180990753
C         8.86862057103731    7.26677475227005    0.69766424750868
C         7.79782671918151    7.93137200770435    0.10437777340882
H         6.78603344537365    7.71767901663821    0.42369026394854
C         8.03905839571170    8.85431127296601   -0.89393169585108
H         7.21282531259014    9.37364915147349   -1.35681194773459
C         9.34075958223572    9.11336275240302   -1.30037738081092
H         9.52325959375372    9.83944267159646   -2.07848309107152
C        10.40103606252067    8.44345476334422   -0.71469467012630
H        11.41414103397239    8.64060439475212   -1.02866972253480
C        10.17020728159197    7.51286790079746    0.28535657711511
H        11.00314035304213    6.99444828504619    0.74747016739976
Cl       11.86380773482539    8.31137918669988    5.07321210450024
Cl       12.92511251846209    6.74836884840395    2.24865728908053
P         8.51200121059856    6.04627754992709    1.99795401432366
S        10.03405485702333    4.85984147658133    2.49599899319280

