42
CSD_code = LUZMIE | q = 0 | S = 0 | Stoichiometry = C17H20ClN3Ni | MND = 7
C         7.63298988837465   -0.05296915845969   -0.29169436604474
H         7.81147484936286    0.95915640475824   -0.62753984371624
C         7.37516829885184   -1.05696248445140   -1.20729412563853
H         7.35605844430423   -0.82462791452895   -2.26095354024428
C         7.13791616438779   -2.35153591992342   -0.77478642623740
H         6.93389221695915   -3.13329944916419   -1.49117820769240
C         7.15865682785963   -2.64263007978527    0.57821642372255
H         6.97161833461910   -3.64978947338563    0.92022210850119
C         7.42353696555704   -1.64206206380240    1.49776852495403
H         7.44135562466491   -1.87212799786314    2.55418643701153
C         7.65879694853437   -0.34440426181894    1.06732747485817
C         7.97214008479102    0.75367334154425    2.05074715858306
H         7.27194629651148    1.59460291668053    1.92323988008560
H         7.91378327687446    0.38584054978466    3.07995100598500
N         9.29278328368653    1.28770678304314    1.80190012018121
C        10.45185908563931    0.58451696438332    1.72412681400257
H        10.53472576532211   -0.46675327465814    1.90710474609183
N        11.43601449039368    1.35721150736494    1.39746626609121
N        10.89214631755430    2.57509598595354    1.25993261618201
C         9.57815979698314    2.58068642475431    1.50206357660325
C        11.68546399749811    3.69479484387616    0.79392407320168
H        11.02346441833845    4.57387854694664    0.85434908758746
C        12.06940320656838    3.44791590652031   -0.66131346538919
H        12.66271563643375    2.54041231989089   -0.74002226852149
H        12.64704557530573    4.28607137115641   -1.03943346075859
H        11.16944466412212    3.34096742773304   -1.26322555543659
C        12.90025066306386    3.86771018316702    1.69570446331305
H        12.59231213333428    4.05322665435378    2.72223553130035
H        13.49872127421128    4.70701166258937    1.35419496054788
H        13.50619290289539    2.96566393596559    1.66902175817084
C         8.77367610108627    5.66060169404862    2.57823833437730
H         9.69134993483598    6.02308234648553    3.01379958088324
C         8.11959272322049    6.16203422008715    1.46718800663579
H         8.43053813716756    6.98573538990187    0.84451878592158
C         6.87099777812543    5.45439527536946    1.33807248458403
H         6.10283531894432    5.70171084907132    0.61982643368920
C         6.71415333018436    4.60396538438658    2.44664005072237
H         5.82464129243664    4.05824221810157    2.71839652020574
C         7.93498876040851    4.63074119891217    3.15188446697642
H         8.12303093996709    4.15557193802299    4.10427850376893
Cl        8.31524234571184    3.51775456971058   -0.78707953640287
Ni        8.38121590490720    4.00058326328692    1.24149460134694

