87
CSD_code = LUZMEZ | q = 1 | S = 0 | Stoichiometry = C40H42AsNPPtS(1+) | MND = 4
Pt        7.02653770085466   14.42302800493643    1.38059805402315
As        9.09256048775489   13.45703637231332    1.95250555185537
C         6.27241573848001   14.35893138645098    3.25190998308712
C         6.95757711093689   14.08799437939139    4.44769505393957
H         8.02471001909774   13.86207442301149    4.42353118566722
C         6.28961488677436   14.08014161867907    5.64091070796281
H         6.81516347332257   13.87035463173498    6.56100033000684
C         4.90332914874757   14.32873090625187    5.69861868479390
C         4.20961373387123   14.31396077257908    6.92696592467282
H         4.76910551822922   14.12772454032193    7.83177240432618
C         2.86131958439772   14.52592623834755    6.97328171093699
H         2.33575017256893   14.51272842905074    7.91565233910048
C         2.14874399835823   14.75809765290700    5.78756295482342
H         1.08192530532990   14.91710039622936    5.83368122663058
C         2.79095184880224   14.78180228325224    4.58112639962032
H         2.21642817674189   14.95409531215682    3.68441594317214
C         4.18614930205417   14.57622062515468    4.49554131685619
C         4.91113124320960   14.59369141636728    3.27733892973654
C         4.26060976845500   14.77329050854338    1.92427201761318
H         3.33433147060834   15.35938619804087    1.97699508658940
C         3.96651215257126   13.37588293160951    1.36961670757381
H         4.91392056997396   12.89476960297557    1.09428244116617
H         3.30757626137170   13.40271468780123    0.50636955358525
H         3.49267561016623   12.77654105373894    2.14288588813829
C         5.40310129615457   16.86599216146220    1.52962025008074
H         6.18977930727783   17.36063383322459    0.95639799317075
H         5.67319398464389   16.87155950080728    2.58545226934266
H         4.47563763187214   17.43596340617545    1.40423567012376
C         4.73789563988795   15.54787757529026   -0.32717560762534
H         3.70829039265504   15.92014150025128   -0.35295575260660
H         4.77715350567073   14.56714243266129   -0.79700425428661
H         5.36214062302079   16.22736529980444   -0.90518440647795
C         8.81234745924566   17.26876259259932   -0.97765622788490
C         7.70874003258580   17.57965299130228   -1.76658932487042
H         7.19078835502562   16.78377196063548   -2.28697525526368
C         7.29162432590533   18.89139262716641   -1.89116092035159
H         6.43572246690519   19.12853508249815   -2.50449224504229
C         7.97966567208409   19.89864621018820   -1.23274287019236
H         7.65530700866593   20.92331120893392   -1.32632696857398
C         9.09049145248867   19.59316343700196   -0.46335622915248
H         9.63379841528239   20.37972654074304    0.03767308689760
C         9.51361008268937   18.28159015231484   -0.33502107381378
H        10.38778348353268   18.05615048545094    0.25634284336829
C        10.31376159024949   15.26916194466106   -2.40663154552123
C        10.11519655158587   14.17410562195006   -3.23680573677065
H         9.32884180840886   13.46562238087090   -3.01431503493839
C        10.92110649319746   14.00220671880440   -4.34847783117830
H        10.76784052917771   13.15144907375738   -4.99441005539002
C        11.91800450072034   14.92120806296133   -4.63098051782675
H        12.54440182516539   14.78660008319100   -5.49916123276965
C        12.11052839777711   16.01930887920865   -3.80576626348742
H        12.88303149743322   16.73837183893868   -4.03181700609253
C        11.31027313610498   16.19737560543282   -2.69370768259666
H        11.44770237913079   17.05930931171762   -2.05408798578850
C        10.49847300770522   15.23387836234356    0.46112025316225
H        11.45639647474050   15.60924654790319    0.07496865807149
C        10.15751233147279   15.88046807741870    1.81602406106438
H        10.83824619779200   16.70097501524682    2.05126141016810
H         9.12553619034921   16.27226957315896    1.81500167491777
C        10.25961886898333   14.76293680587557    2.87342710683435
H         9.99098567681655   15.11815881038822    3.86974069491975
C        11.62040202280401   14.12649711543477    2.78110042035330
C        12.57190528925974   14.26589098102843    3.92011432057977
H        13.49917819315853   13.73032983205845    3.73858461739828
H        12.11757540280681   13.88233842864081    4.83428956613773
H        12.80746372673665   15.31769363412663    4.08566060566827
C        13.02526777733507   12.86907006816674    1.05030192405745
H        13.80472168948002   12.78283071060672    1.80182956259603
H        13.42082798886041   13.43872457034415    0.20766378333045
H        12.77735810271827   11.87164715251622    0.68543733049537
C        11.80698838092117   13.53416307175834    1.59510453281664
C        10.60669194149552   13.71459539697630    0.70232235605954
H        10.64598382156638   13.13971652857662   -0.22794837706345
C         9.12969218030212   11.68626878913596    2.73445770150765
C        10.25935772238191   11.01423812153566    3.18754763590802
H        11.23301301982741   11.48331278667971    3.13180401396287
C        10.13217206905458    9.73963813333036    3.71426506478135
H        11.00852411541758    9.21719798614469    4.06769002229668
C         8.88843521042057    9.13308707074869    3.78980907050542
H         8.80009299425627    8.13942903300878    4.20157465931462
C         7.75923145040709    9.79820205213175    3.33829464480472
H         6.79111693225719    9.32442355707795    3.39718930272463
C         7.88010168613754   11.07145512433378    2.81166277218028
H         7.00981067816385   11.62424334199958    2.45246311894507
N         5.22774101813839   15.48789812184092    1.05124892334505
P         9.28695416813252   15.50930293677516   -0.92906608911901
S         7.72661054289644   14.30134937047477   -1.02939582313233

