42
CSD_code = LUZMAW | q = 0 | S = 0 | Stoichiometry = C17H20BrN3Ni | MND = 7
Ni        7.09022692325421    4.03824458908093    7.22152895599216
Br        6.97251402762945    3.72492685565186    5.01471400608029
C         6.61572007842006    4.48559828219858    9.17940826058925
H         6.73296919071428    3.89876245263436   10.07984879816824
C         5.43524163916553    4.62304957205989    8.43376926482885
H         4.49771416903531    4.11885655479842    8.60773060588880
C         5.70331849244668    5.56974737628317    7.42486657886695
H         4.98480467470646    5.94584554058697    6.71003945060229
C         6.98682474435453    6.16935471823033    7.67719104229270
H         7.38468221318203    7.02637753487376    7.15732068928146
C         7.55810625422207    5.49574274139442    8.73863554955701
H         8.48340017563200    5.73430664072495    9.23988869041407
C         8.24654817982952    2.57245407784215    7.43803798975873
N         9.56505172425841    2.55246967339199    7.22504437436232
N        10.08932619423941    1.32593691895340    7.36320973625474
C         9.08759511164455    0.56256380713831    7.65559256713344
H         9.15162322914298   -0.49190628510219    7.82680033271305
N         7.93512089736330    1.27967748071263    7.71187664213974
C        10.38554355462921    3.67004729510522    6.80017391778452
H         9.71292614543049    4.54414618415522    6.77835357083755
C        11.51024278245149    3.88520872940910    7.80467488122288
H        11.10808866033192    4.08585825872452    8.79549284572741
H        12.12163432003666    4.72923850555779    7.49950996635244
H        12.13285933287467    2.99542077252288    7.85302760740677
C        10.90709848244868    3.39109413291993    5.39503947549381
H        11.50548096265198    2.48370862505846    5.39691345901676
H        11.51955790659021    4.22173140234362    5.05780068872770
H        10.07457343036691    3.26915696406150    4.70560430147192
C         6.60035533284084    0.76351339432863    7.92574830610797
H         5.91001475033018    1.60155967578379    7.73756268276454
H         6.49620031778825    0.44033154882163    8.96673801569510
C         6.31440646789719   -0.37518107492774    6.98084572660689
C         6.31292185157546   -0.14487642720339    5.60995076555318
H         6.49481965778490    0.84871728073355    5.22698236567994
C         6.07100963781907   -1.18796289835420    4.73439438192380
H         6.07076962542407   -0.99972671902000    3.67198633423236
C         5.82569337950308   -2.46218883382434    5.21916680154565
H         5.63340731651618   -3.27448130909533    4.53424749175378
C         5.82417751008202   -2.69376266853342    6.58392863464162
H         5.63098921842726   -3.68491329121419    6.96704579208116
C         6.07289373117264   -1.65383468477173    7.46315604485631
H         6.07204770579246   -1.83771339403843    8.52885240759900

