71
CSD_code = LUZSOP | q = 0 | S = 0 | Stoichiometry = C36H30Br2P2Pt | MND = 4
Pt        1.76671097098102    0.16368979672680    3.80407247132455
Br        0.79419115651539   -2.05806083444043    3.88915887900008
Br        4.01127256445606   -0.78710183081652    4.03338020936672
P        -0.35702348793357    1.02941740853564    3.75919288580743
P         2.94005488598553    2.13137913297480    3.51484330604362
C        -1.78737925186052    0.03006609359787    4.27770623832822
C        -2.34200673438481    0.11505496509979    5.54865930160346
C        -3.40509648129619   -0.70260515061947    5.89112607501620
C        -3.91092879510194   -1.61021504264329    4.97684661470936
C        -3.35358553220803   -1.70293649291292    3.71118729940092
C        -2.29529918998435   -0.88863200050981    3.36097835485600
C        -0.44301409756668    2.43761039123969    4.90759670660169
C        -1.09657783926382    3.63840589833441    4.67462521124171
C        -1.10729286244428    4.61419352523971    5.65662496630989
C        -0.46986718132644    4.40050046473625    6.86686150373126
C         0.19258302943393    3.20590591898324    7.10159917194917
C         0.20477747723120    2.23049265408409    6.12423655755804
C        -0.93525688064969    1.61961543325450    2.14161663174425
C        -0.07287749026225    1.53267249018591    1.05572595158610
C        -0.47924211818541    1.95580018141709   -0.19698303095101
C        -1.75591218837868    2.46420375582329   -0.36861461151161
C        -2.63058958534563    2.52698364891007    0.70574162251072
C        -2.22949937539114    2.09809021746268    1.95731294064405
C         2.15314951067172    3.78248883625570    3.58343641263862
C         2.28674895172196    4.61835356232053    4.68613943815021
C         1.67577853683976    5.85934676738250    4.69707439551845
C         0.92050957517638    6.27631619224536    3.61460015039385
C         0.77338098446019    5.44356892084355    2.51724473450780
C         1.38436618055416    4.20498338917898    2.50163855804984
C         4.33718856658117    2.34657962784946    4.66138614069745
C         5.62514658337832    2.66181257347022    4.25150406828096
C         6.63290167555298    2.78894593275461    5.19211779171800
C         6.36496141917044    2.60210191013451    6.53687961890363
C         5.08279171365841    2.27411094371922    6.94841099209883
C         4.07457581114752    2.14277086637793    6.01446030641845
C         3.66076308183381    2.18543908203597    1.84534065897629
C         4.23672079827929    3.35657109564808    1.35628656309058
C         4.77675700164456    3.38137221527758    0.08439615074713
C         4.74065758470307    2.24651852047538   -0.71151858297634
C         4.15900767654037    1.08419804681212   -0.23496166221260
C         3.62055955546304    1.05344491154841    1.03907090590302
H        -1.94863644922426    0.81632936588768    6.27114623556307
H        -3.83400749381946   -0.63286395224400    6.88004460693760
H        -4.73510218707838   -2.25107433754092    5.25226840821358
H        -3.73760984439743   -2.41842934917315    3.00007010367156
H        -1.84672191923795   -0.96998530244442    2.38030742957467
H        -1.58386229426915    3.81969447845960    3.72830306669734
H        -1.61803237994367    5.54803591577252    5.47366675056878
H        -0.48521667460586    5.16671654908579    7.62745837170402
H         0.69383537856262    3.03842442282715    8.04370569986833
H         0.70973887976796    1.28203052380513    6.29260958766231
H         0.91801436342954    1.11508532246239    1.20159674789725
H         0.19713088214321    1.88510157878927   -1.03613605133625
H        -2.07721922560706    2.79820129518287   -1.34390731313011
H        -3.63267535654768    2.90440197268284    0.56370177716615
H        -2.92147607291335    2.11462959690773    2.78844798019340
H         2.88009802364087    4.30614323761245    5.53335322596306
H         1.79552315971185    6.50501386775039    5.55456303516420
H         0.44985226415151    7.24811171284556    3.62439365470312
H         0.18563097725077    5.76088923208543    1.66809810901969
H         1.27975576693210    3.56521901517054    1.63673636181964
H         5.85030794162730    2.78468486119419    3.20244411112429
H         7.63581016506801    3.02508795718275    4.86848149328746
H         7.15748081192188    2.69576506334776    7.26415104765453
H         4.87441767299623    2.10778479630989    7.99502906190550
H         3.07637805276117    1.85672388822925    6.32372932560631
H         4.25310246129702    4.24622612495422    1.97188151158820
H         5.22805338167384    4.28944678972067   -0.28813453244712
H         5.16558130236667    2.27132478184281   -1.70395980627621
H         4.12654260716348    0.19919487897346   -0.85239103851330
H         3.17529960480056    0.13593169340642    1.41193914041080

