81
CSD_code = LUZTEF | q = 0 | S = 0 | Stoichiometry = C37H35BN6SZn | MND = 4
Zn        7.12040746039772    4.96951996800377    8.87575520108738
S         6.93330584472741    6.26032081732818    7.00534283743155
N         5.50402334882276    3.80266099196597    9.34910510286506
N         5.80066749857647    2.82490271736957   10.21855569734790
N         7.51265574392081    5.26700694174865   10.85462629172316
N         7.48249303993367    4.11884920078202   11.55135689299642
N         8.46290961479769    3.43680285483935    8.85026133254446
N         8.23240739058817    2.51229478066808    9.79325675634208
C         4.25892028609671    3.60793669276299    8.91373972736398
C         3.74354650565078    2.45579998864562    9.51836094788994
H         2.76653503979787    2.03678671523966    9.38996061111756
C         4.75060004768948    1.99270242980500   10.34473963162113
C         4.73097094466381    0.80051260709428   11.23173038640788
H         5.50455977397695    0.09121462693421   10.94299895046880
H         3.76267050191684    0.31258156018081   11.15993594235952
H         4.90540136476093    1.08761062190554   12.26694644640938
C         3.59316806400671    4.51562836757186    7.98742007786092
C         3.79011170749270    5.89141586379933    8.08096874864601
H         4.43281646281512    6.28506607747121    8.85477319721546
C         3.15256186936650    6.74780311552983    7.20354235262868
H         3.32357601532874    7.81102618857192    7.27470006859447
C         2.30247412903564    6.24360316172510    6.23338586442373
H         1.80661044699397    6.91372972012636    5.54647711877391
C         2.08950578818990    4.87677346963407    6.14318900319232
H         1.42786072963383    4.48051738844903    5.38616414804854
C         2.73095054730793    4.01574010241586    7.01353612782561
H         2.58011436308589    2.94877988491265    6.93199634616594
C         7.85033395653582    6.25372843949154   11.68704854887574
C         8.03736721025000    5.71590908936414   12.96677679868109
H         8.29310942330002    6.23972344425340   13.86472163560555
C         7.79122459932697    4.36249394889716   12.83905008629100
C         7.84687310141141    3.32335196384469   13.90017887641495
H         8.60585287168968    2.57776201152946   13.67023320445259
H         6.88920175218871    2.81510254589734   13.99315226619610
H         8.09100790409573    3.79095266448035   14.85018749182647
C         7.99875144780098    7.63928066118224   11.26254229546516
C         7.31381846770904    8.13390677973771   10.15483006435590
H         6.64329538090790    7.49025748987014    9.60335225838569
C         7.47790008744575    9.44688454377602    9.75686081775122
H         6.94785326350653    9.80748689766373    8.88861314176805
C         8.31788035220321   10.29011873391122   10.46494690540490
H         8.44478664240598   11.31686859501444   10.15476725891686
C         8.99617673075926    9.81135063711185   11.57412140206850
H         9.65336685192083   10.46473841467899   12.12976554653911
C         8.84074265942261    8.49693402704948   11.97068772015870
H         9.38752099124028    8.12499553705203   12.82437259527990
C         9.42817589301731    2.98588286276897    8.04964897526151
C         9.82001671027958    1.71551839448281    8.48740195303542
H        10.57998746483346    1.08899910629141    8.06717532368661
C         9.04223357566736    1.45486341623010    9.60098149255596
C         9.05206354742522    0.24595402762770   10.46508239560293
H         9.28697338773515    0.50999580848238   11.49448914700834
H         9.79991136991790   -0.45351055807154   10.10142404284779
H         8.07921211335840   -0.24237039897487   10.45545563933091
C         9.96130743093376    3.77752704630691    6.94785801217440
C        10.10389334375431    5.15785980361834    7.07803054157890
H         9.82607391830611    5.64078186966529    8.00463960346264
C        10.61063353362723    5.90590431706263    6.03217692585655
H        10.70233574852016    6.97627184043160    6.13739798623977
C        10.98915789398547    5.28669387714669    4.85205954358121
H        11.38299214714248    5.87327775842525    4.03470877095671
C        10.86237517394012    3.91271809416520    4.72006068381673
H        11.15525997554396    3.42787010631006    3.79994693957667
C        10.35201837814418    3.16045024185154    5.76104484759572
H        10.23653122183959    2.09143481475979    5.65335448020368
C         6.62620850633262    4.91369410326949    5.78620850094294
H         7.49658134276731    4.25572813661296    5.79734084099438
H         5.73513746791934    4.37255534648939    6.10764507120302
C         6.42883741116633    5.52133887992548    4.43839586857164
C         5.15245776935368    5.81421284258382    3.97505962283790
H         4.29782005627403    5.58027960349984    4.59285967412397
C         4.97288168743329    6.40271798557948    2.73637236157202
H         3.97445537699349    6.62326373863830    2.38641003670301
C         6.06749317626266    6.70814328941158    1.94581919902394
H         5.92736249116600    7.16874109905692    0.97843494384844
C         7.34327165459210    6.42379317999654    2.40303753207560
H         8.20180510527159    6.66379172874454    1.79244117900776
C         7.52304827824825    5.83527089398273    3.64117982331192
H         8.51826692382704    5.61968104968278    4.00184719636868
B         7.18136923250326    2.76156315029013   10.88929036756259
H         7.21016246863291    1.89856926304742   11.69068575368107

