71
CSD_code = LUZTAB | q = 0 | S = 0 | Stoichiometry = C31H31BN6OZn | MND = 4
Zn        0.41176523140972    2.03875032161371    9.98693024597119
O        -0.68203897797829    3.41101973706024   10.28685448486739
N         0.62173595307839    0.57263439478963   11.32355042248153
N         0.07548954663946    0.90856071538783    8.37561215783633
N         0.77871748078348   -0.23144533459064    8.39512147684574
N         2.82258360145621    0.81543081262237    9.36580965212573
N         2.38712994119512    2.05887590562463    9.63496585850609
N         1.27030962554794   -0.48793137594164   10.82378033011135
C         4.13344560279569    0.84774403828183    9.06236544459220
C        -0.66421948271880   -0.39737694008036    6.73847872272570
H        -1.21284062457848   -0.75800144761850    5.89239251190185
C         3.41948404460719    2.89875102257382    9.51394732742002
C         0.20273947320285    0.26703766582091   12.55059702115503
C        -2.10910115731137    4.30968050368069    6.88708871938845
H        -1.76630015749835    5.32673013584515    7.00393337244836
C        -1.69453535008652    1.94675536001654    7.05115855046551
C        -0.17512006480089    2.57793066978455   13.34433519822035
H         0.60009558641589    2.91756396573650   12.67271430182778
C         0.35507263094285   -1.04595340544048    7.41154906253369
C         4.94346680783849   -0.34576010843584    8.70334651679427
H         4.53745849538526   -0.83553068287380    7.82034193450530
H         4.95101786376077   -1.06697621579867    9.51837115596225
H         5.96524859286661   -0.03913453478097    8.49649630090881
C        -2.98640235953655    1.69930165830234    6.59248745907433
H        -3.33033654050794    0.67996658056831    6.49125095410483
C        -1.48529182560221    0.79143029053178   14.28026377751472
H        -1.74210938355536   -0.25722237570042   14.32186796147842
C        -0.80270034789010    0.84139221773319    7.37625816145802
B         1.90215324478219   -0.41832655074451    9.42536710903521
C        -2.04414132160024    3.37113634007955   10.54705158377663
H        -2.40297032824530    4.40296655307072   10.66369447629720
H        -2.28028421400376    2.82679407188942   11.47376196018141
H        -2.61728052655567    2.90847429683670    9.72896067283740
C         0.58614056241105   -1.04785745934564   12.84196122969774
H         0.41364476301521   -1.58996113523370   13.74917790966281
C        -1.25796993585502    3.26290072639801    7.18595789526483
H        -0.25135882661296    3.45887266300350    7.52432124820157
C         3.33321594697375    4.33545156245575    9.74434098500639
C        -0.49774801493093    1.22352866448608   13.39729815144905
C         1.26781863067231   -1.48908288229354   11.72266920935303
C         4.55360193848342    2.15938603541542    9.14686519095914
H         5.54242971001732    2.52032438115802    8.95330382666784
C        -3.39662301387487    4.05746699585010    6.44245975808232
H        -4.06155847993267    4.87712015942932    6.21224445270190
C         4.44650992909035    6.45895347236661   10.03349039337371
H         5.36214565989134    7.02984161850340   10.09315574622493
C         0.92036398869657   -2.39526221418508    7.14996914827962
H         0.78739552231312   -3.04146155666157    8.01575745269198
H         1.98594872695681   -2.33219461230919    6.93726023449267
H         0.41646419826907   -2.84147155579680    6.29705381584961
C        -3.83160804034555    2.75090269391638    6.29195394301060
H        -4.83523136043350    2.55107584767902    5.94452597444882
C         2.10601053391168    4.98251504114546    9.88669939173677
H         1.18373828078411    4.42465619731979    9.83740154351833
C         4.50295653922841    5.09473664364184    9.82370565335902
H         5.46503482147166    4.61476831839908    9.73075969113275
C        -0.84548743139200    3.48243601349932   14.14614658503575
H        -0.59537512942226    4.53115673715594   14.09063759443617
C        -2.15006624662793    1.70077488026112   15.08112291402228
H        -2.92073818298541    1.35876484373132   15.75701998604431
C         3.22244447315264    7.09284389933804   10.16971459161888
H         3.18010708929126    8.15987358570416   10.33315144488816
C        -1.83455658025618    3.04811136286926   15.01333637605824
H        -2.35996115056274    3.75731348807863   15.63621651478737
C         2.05711355716888    6.34798080185526   10.09837189289415
H         1.09756563907423    6.83062164076687   10.20783004151862
C         1.90263538768227   -2.81331349819411   11.49353708739375
H         2.97018151407753   -2.70176321216106   11.31355116573166
H         1.46418297587548   -3.30628206623937   10.62785090359318
H         1.75690825982760   -3.44194271760678   12.36773785434496
H         2.51248268463375   -1.40055365024645    9.19883731711002

