79
CSD_code = LUZTIJ | q = 0 | S = 0 | Stoichiometry = C36H33BN6OSZn | MND = 4
Zn        7.87706314564594    2.56096333590797    3.42833986826684
S         8.47237474136015    4.52574103229762    2.41455347303472
B         7.17065377662603   -0.07596351333177    4.67511665083180
H         6.88983227064618   -1.10621606178945    5.17260946355817
O        10.31804835408101    2.94011514019335   -2.96790329872927
H        10.63551708650694    3.71620203879980   -3.44425446496702
N         9.17932320797097    1.01856391277268    3.66154005493482
C        10.38317716184437    0.70881206722740    3.18017524453006
N         7.18555921039897    2.35526529090093    5.32572832155661
N         7.03364953532282    1.07022929015565    5.68617807184756
N         6.43726978372073    1.31122033442795    2.72268513500245
N         6.26984961610179    0.19908549205723    3.45578815759381
C        10.60820248687184   -0.65777440806887    3.37505773550478
H        11.48457779312931   -1.21459125836314    3.11338461604451
C         9.46897850182096   -1.13234352593934    4.00099325533804
N         8.62230562438288   -0.09798734528919    4.15516986893756
C         9.17147609773803   -2.52078891540076    4.43939731142996
H         8.91542635940798   -2.54531899272628    5.49667932916971
H         8.33164676047517   -2.92839978888044    3.87881888194276
H        10.04200219231874   -3.14890661342793    4.27110036021248
C        11.22689502733032    1.71093079537425    2.53865489756666
C        11.90144361917016    1.40440440773405    1.35979514991306
H        11.81983900514762    0.41131187932370    0.94265409915381
C        12.64004649461764    2.37362849345327    0.70899854747368
H        13.14557054859136    2.13265426170313   -0.21460197694079
C        12.71972524129659    3.65379244650429    1.23146700408709
H        13.28751145106905    4.41362802311280    0.71497787438452
C        12.07317129248431    3.95811353290413    2.41704538237079
H        12.13498869293384    4.95396035330843    2.82928562545669
C        11.33052498797978    2.99316162252680    3.07115923701922
H        10.83237982191397    3.22899871470806    4.00130309021529
C         7.03908537967117    3.11342554314651    6.41328888553226
C         6.78665294514213    2.28277195246008    7.51113420907086
H         6.60647507405787    2.57957351955990    8.52392824927094
C         6.78711175145294    0.99567197452970    7.00734063121815
C         6.56921735170427   -0.27518965682197    7.74618941855267
H         7.44397465089050   -0.91837985713195    7.66947109648195
H         6.38391058784317   -0.05684092982001    8.79435104494485
H         5.71520203782333   -0.81526891183961    7.34201946115453
C         7.13022788317810    4.56681635212576    6.37739707549137
C         6.71022352192494    5.27816456545935    5.25627629461718
H         6.29275340510298    4.74687775517760    4.41360249830011
C         6.80964185752241    6.65578554711064    5.22544315999645
H         6.49250553416413    7.19375241145979    4.34523257575456
C         7.31637270584932    7.34151804178912    6.31677207444211
H         7.39450022596681    8.41848718755961    6.29211644348292
C         7.72182881513585    6.64314171430316    7.44246297844224
H         8.11565462932108    7.17533532090799    8.29643433744609
C         7.63070386173657    5.26466435499247    7.47506093503926
H         7.96428477825695    4.72028721270882    8.34643567205991
C         5.67046394403692    1.21714740769787    1.63685725014925
C         4.97921910906011    0.00260397836344    1.67656467577477
H         4.27277828432615   -0.36459547125640    0.96053911314370
C         5.38244662326060   -0.61118500927891    2.84947880475492
C         4.94409699865606   -1.92182054035983    3.39596863360150
H         4.54824057964131   -1.80374491006557    4.40270146571918
H         5.77717761766913   -2.62117067466223    3.44102947923938
H         4.17010598860106   -2.33980987206422    2.75807342846611
C         5.68231567100836    2.25466688189313    0.60947423896280
C         5.60926234265888    3.59967413266663    0.95837024720801
H         5.46150309888320    3.87546406638277    1.99260133334360
C         5.71478277303753    4.57653924255872   -0.01379439351116
H         5.67470394826909    5.61765146493369    0.26849079789892
C         5.88920088404382    4.22117244558697   -1.34019908294589
H         5.98861344355141    4.98582821626401   -2.09633236777706
C         5.93373856748461    2.88399352169129   -1.69784279149860
H         6.06525241788985    2.60425185897196   -2.73280133972896
C         5.82679585290819    1.90367380282493   -0.73000819477364
H         5.88306454646004    0.85979266100278   -1.00303171210642
C         9.01473074177447    4.01080895524210    0.83219290001741
C         8.96267426632160    2.69280169177406    0.39679430656123
H         8.57602766544364    1.92276945899526    1.05099661814313
C         9.39619764774611    2.34815223232962   -0.86605447677018
H         9.35392604631975    1.32500783542124   -1.20459985165180
C         9.89564783351982    3.32007079686868   -1.72276698146216
C         9.95203087454138    4.64030058651580   -1.29472749709672
H        10.34089584886162    5.40465792881543   -1.95595591307517
C         9.51576603015326    4.98101256193054   -0.03145117868191
H         9.55848346827290    6.00559860904245    0.30347848005034

