57
CSD_code = LUZTIK | q = 0 | S = 0 | Stoichiometry = C22H32NPZn | MND = 3
Zn        2.17486319914700    5.31337536698627    2.38457844270921
P         0.61375509934190    3.52510633904922    3.30732981903220
N         1.09571959856056    6.49407065554803    3.51620112349929
C         1.42632280740959    2.58207876012459    4.70772712919437
H         2.01498569960617    1.78582979724411    4.23441992771622
C         2.37817495454484    3.55574513638080    5.39766268011974
H         2.93971116985254    3.05355373471470    6.18417661076904
H         1.81494644370219    4.37361344841137    5.84504604950386
H         3.08896706261488    3.97494070445321    4.68013319380302
C         0.45994333320975    1.96748280465322    5.71257738027146
H         1.02093310269300    1.44807590635226    6.48854429228140
H        -0.20397295877689    1.24718928195852    5.23945868390685
H        -0.13902350590395    2.74197438491457    6.18674721133300
C        -0.56367387599852    2.31312243736983    2.51282585144158
H        -1.25784948693982    1.91988701226234    3.26233147655364
C         0.22175460435856    1.16119267368203    1.89475180639427
H        -0.44831043021336    0.50462152184099    1.34175271339564
H         0.72161949656793    0.56907065406706    2.65835022247631
H         0.97396779285469    1.54151089145258    1.20441536004819
C        -1.34712675166555    3.07769302635930    1.44970712285386
H        -2.04956935119041    2.41842841498672    0.94244328508984
H        -0.66669911135730    3.49320414066750    0.70546391778706
H        -1.90506208054948    3.89720152667614    1.90038150317795
C        -0.44242836217603    4.73746243836386    4.12684169968884
C        -1.64287217932172    4.36611930359006    4.72883426292030
H        -1.94996965084746    3.32976308697089    4.71143512436105
C        -2.45843298805446    5.29122498073620    5.34483132575749
H        -3.38117359785121    4.98219280167326    5.81209338915979
C        -2.07538686813768    6.62923196628961    5.34841616747826
H        -2.70640715010044    7.36669014178686    5.82490027545625
C        -0.91026539657995    7.02687068092183    4.74483950074814
H        -0.63231420111920    8.07158096492905    4.73927500231463
C        -0.04444836036217    6.10458739858010    4.11055572496781
C         1.43749930903435    7.85906386210881    3.48237410409614
C         1.10091857703309    8.62841611034535    2.36224365770844
C         0.31781706054607    8.00622103949629    1.24499691152978
H         0.15560972284744    8.72010309377090    0.44122168554782
H        -0.64915293967555    7.65634285929740    1.60708085296073
H         0.85325908853657    7.13870053366962    0.84108234021970
C         1.50356629615261    9.95336655046041    2.30533995231675
H         1.24446095414936   10.55016265173262    1.44177230997206
C         2.22632892717796   10.51761079685806    3.34109208248080
H         2.53236802443908   11.55203168360683    3.28691110740130
C         2.55722600716867    9.75334339470156    4.44570441282474
H         3.12372950237590   10.19362276643127    5.25444238352095
C         2.17174220026474    8.42517062005631    4.53120563287495
C         2.53584352810587    7.58379784637673    5.71675327855098
H         3.14976991700212    8.14508236421245    6.41677060096510
H         3.08607722546650    6.69935038359693    5.39135998167214
H         1.63755151003155    7.24252611433556    6.23171821347957
C         3.96826691729381    5.59230184487106    1.47208628170364
H         4.62753391073703    4.73238537279275    1.60110612774953
H         3.86466440226727    5.72527622133367    0.39454671979290
C         4.67401182419486    6.82811636407214    2.03569443248558
H         5.63566921115406    6.97540001586974    1.53941529480871
H         4.86334781094873    6.72537353016796    3.10289446890978
H         4.07791295543347    7.72634159583435    1.88793889021698

