98
CSD_code = LUZVIM | q = 0 | S = 0 | Stoichiometry = C37H56IN3Zn | MND = 3
I         2.79794086102168   10.67729336064907    2.02548811736798
Zn        3.05672306205132   12.41912805123157    3.77007548401589
N         3.84085633123627   14.16250409539961    4.23161652177541
C         3.32566754090759   14.07953843164595    5.46111567600458
N         2.63409473689679   12.94989224407998    5.61870070139138
C         4.16859777823522   15.31283445631129    3.49592279220827
N         3.49242430858179   15.03106658541395    6.43257713083985
C         3.17928042708876   16.24634531670673    3.14195677006506
C         3.52503111405511   17.29223006246141    2.29930362370166
H         2.77874100605641   18.01455716946718    2.00830520104362
C         4.81087263936457   17.42132728203017    1.80912818698420
H         5.05860033820622   18.24442815067696    1.15557347241315
C         5.76943865697114   16.48179096245593    2.13460563898013
H         6.76246455339421   16.57373845458925    1.72281789595769
C         5.46672469229114   15.42071467491718    2.97355455840902
C         1.74522167168207   16.05510028766907    3.59036775826618
H         1.74854615879284   15.55910032824491    4.56582074404832
C         0.96756268513104   17.36312461649781    3.74002942964018
H         1.53610025456638   18.09326113759077    4.31327600738346
H         0.02837806084600   17.17490974287684    4.25743672537936
H         0.73095881776132   17.79279065341861    2.76972748896832
C         1.03014091943404   15.13630072414921    2.59382091953678
H         1.05399265621713   15.56734494626540    1.59506285404488
H        -0.00709599961569   14.98658753983566    2.88756497033905
H         1.51925072074795   14.15714142298535    2.55138118661456
C         6.49127132734988   14.34682897401236    3.26568736703818
H         6.17547608938331   13.80739974820506    4.16725609268549
C         7.89485158343606   14.90094878100106    3.51031968948484
H         8.54236646135967   14.11213549623951    3.88861793704610
H         7.87512424690837   15.70956554246414    4.23857424090789
H         8.33385269114426   15.27879201170772    2.59050806344467
C         6.51081446018309   13.35077812548111    2.10196004884076
H         6.80617663470167   13.85023338866380    1.18176303425140
H         5.52114067046296   12.92129339079517    1.95081137560898
H         7.21182478866533   12.54279934283318    2.30083112545470
C         2.33677758648198   12.24919688530172    6.79861133359111
C         0.98997298622140   11.98062524056327    7.08853479199358
C         0.68269047746586   11.17083488297851    8.17051687578737
H        -0.34824874245500   10.95213463600795    8.40164891574330
C         1.68290364549323   10.62963196197790    8.95466941555286
H         1.43104491387291   10.00038121495498    9.79526016672530
C         3.00810810042407   10.87383250206774    8.64778115950992
H         3.77801115398346   10.41855334326167    9.25056299448007
C         3.35986214517128   11.67865077721570    7.57429125500748
C        -0.09839889733503   12.51495616215627    6.18376010434099
H         0.30587084887299   13.37122304880486    5.62989927303879
C        -0.47741777003263   11.43325114659949    5.16753195980621
H         0.39559033415625   11.12941598379943    4.59061195451016
H        -1.23497718618602   11.80280243873320    4.47947116497223
H        -0.86771782825738   10.55511682361606    5.67737162295001
C        -1.33868306903499   12.98407404218451    6.94444601029746
H        -2.00010967582036   13.52835920930464    6.27293303201721
H        -1.06665011480379   13.64132367898499    7.76830576992623
H        -1.89448570660725   12.14126865119853    7.34732683311727
C         4.81183005835790   11.86249496944626    7.18455297162117
H         4.92048125152538   12.83799205610219    6.69983576986790
C         5.77617393190170   11.82460901845226    8.37058571805083
H         5.87973557769914   10.81496386411432    8.76027302895244
H         5.43395958878228   12.47330058810739    9.17499677134326
H         6.76194895741277   12.16047112275715    8.05342577559299
C         5.19569263756177   10.78271671102752    6.16716738014015
H         5.04921020541791    9.79164207681333    6.59160704146359
H         6.23799408178445   10.88825206217331    5.87220140329927
H         4.57496676400226   10.86122517686489    5.26858841523219
C         4.69873874746699   15.85837440350739    6.38285945964160
H         5.30356342113423   15.41807768603793    5.58608766511224
C         5.55436723751559   15.79224081247045    7.65211431401881
H         5.65845819139705   14.76077047766750    7.98975366272356
H         5.09326663128622   16.37372790123079    8.45055176818400
C         6.92909840283195   16.38702745483213    7.35293996150129
H         7.55320012112728   16.33602365893504    8.24785508496870
H         7.41831008635863   15.79913166991407    6.57327153302042
C         6.79834441965603   17.83755487134160    6.89616941117525
H         6.40468551546923   18.43812446400498    7.72002589191380
H         7.78162108591006   18.23499676739648    6.63674930457859
C         5.85859085661219   17.95155357541101    5.69863341976774
H         6.28944389420009   17.44189857869549    4.83456156248032
H         5.72853130250297   19.00166991942650    5.42928901141000
C         4.49924693409984   17.33495346993073    6.02141692417544
H         4.06139944552220   17.88006282907193    6.85638061026868
H         3.83858045595305   17.43050792025519    5.16094470742515
C         2.45711482261620   15.15736275945244    7.45920893427163
H         1.65279388201442   14.49764115982941    7.12408493066753
C         1.84481232721504   16.55808512588249    7.56056067071852
H         1.62783057269803   16.95298311252631    6.56792136158204
H         2.53466718678414   17.23750042750728    8.06135097086376
C         0.56137973877627   16.47861130419516    8.38493883543889
H         0.10935393425036   17.47040832707088    8.45549837373192
H        -0.15372827793510   15.82286956436939    7.88347881723418
C         0.85460752902216   15.94384268795679    9.78410194011361
H        -0.07638942227122   15.84277125204807   10.34539785500995
H         1.48663327324014   16.65951235830491   10.31590815699415
C         1.56930642673453   14.59680616774924    9.71556693878412
H         0.90947658498346   13.84443702467247    9.27867186132528
H         1.82666044845369   14.26311557518778   10.72284693905827
C         2.83873107361267   14.70476181843144    8.87342867559774
H         3.50618034191032   15.42653234839191    9.34218872612266
H         3.34067360727971   13.73913675175365    8.84121398104584

