80
CSD_code = LUZVAD | q = 0 | S = 0 | Stoichiometry = C36H32BN7O2SZn | MND = 4
Zn       10.93445345659381   15.11394565072468    4.51055574029915
S         8.87016837584250   14.61576553560849    5.44339243590292
B        13.55114003988578   15.71275966090012    3.23847519686323
H        14.59289259171913   15.95095150885268    2.74481921797163
N        11.58376824157681   14.21883012511467    2.82553995962096
N        12.76333572637287   14.69304942062667    2.39023822669206
N        12.68842885511752   14.89066837364249    5.45329738810978
N        13.73686192666096   15.13325476825018    4.64722404950713
N        11.43527019412671   16.93375015264221    3.81272143544823
N        12.68219383109237   16.98457812395377    3.31239945775334
N         4.89087536647289   15.91394890290933    1.25553217568412
O         3.71459413557437   15.71797501339528    1.51212585658741
O         5.28657335980786   16.36432083763543    0.19201266763584
C        11.05413902427915   13.46553471165134    1.86006975204059
C        11.92700107241861   13.45265120910227    0.76865263937961
H        11.79918140590743   12.92916547859983   -0.15638629129850
C        13.00147508798309   14.23909109237419    1.14657834202802
C        14.22070598789119   14.56520006432912    0.36298492027123
H        15.11806923166192   14.28976432332317    0.91318369562094
H        14.26769153780598   15.63221094574474    0.15217033609015
H        14.20242296985895   14.02326682251890   -0.57842591829797
C         9.74296115383949   12.84347054261682    2.01262562848587
C         8.81583563056737   12.91087650385483    0.97549476777661
H         9.08862059554139   13.39284202064078    0.04816903403671
C         7.54482139878847   12.39586511845438    1.14459211510186
H         6.82582865035575   12.46750568959946    0.34215308307311
C         7.18983204521190   11.80103491529930    2.34417714909390
H         6.19235239907075   11.41035547361630    2.47836637618345
C         8.11618273269232   11.70491348296038    3.36869301772980
H         7.84577750346743   11.23506723827159    4.30232019138276
C         9.38813557200187   12.22210878406154    3.20678721601372
H        10.11472429643015   12.13807387820983    4.00335463664018
C        13.14926433008656   14.37078873992944    6.59255152982222
C        14.54209355813850   14.27290270716917    6.51146069500713
H        15.21262346869016   13.91207546271324    7.26391457140451
C        14.87580203185431   14.77079158531290    5.26522316293069
C        16.22812074925502   14.89854752227124    4.66363947860485
H        16.30002980670954   14.30715858707993    3.75273799192468
H        16.97383745921780   14.54693106383701    5.37115891008686
H        16.44188394840974   15.93539802939706    4.41186330512066
C        12.27068578503990   14.00739059346011    7.69641946656801
C        12.56856501981890   12.90863473496340    8.49971109261088
H        13.44959148393379   12.31940204564378    8.29165206301355
C        11.73071172503967   12.56100715483664    9.54233859610322
H        11.96611063231454   11.70451958288747   10.15717047691372
C        10.58918036501673   13.30381885399076    9.79620516900734
H         9.93381759205317   13.02636035637820   10.60836311801644
C        10.29252858412793   14.40398906009185    9.00902283497179
H         9.40616257088671   14.98797341111627    9.20436493786259
C        11.12998859786746   14.75845124197929    7.96889112531269
H        10.91396267481662   15.63362859861861    7.37302321325337
C        10.84405603815512   18.10737410136799    3.58433122041157
C        11.74475449136022   18.94429910206190    2.92088973011475
H        11.58037923338275   19.95558299349011    2.61049176845287
C        12.90079241542639   18.19757318364929    2.77245858226262
C        14.18298276710641   18.61088080869845    2.14625850229209
H        14.12636601213972   19.65804360156786    1.86240359778092
H        14.38891901592034   18.01741320532631    1.25725855010370
H        15.00944595726280   18.47602490856854    2.84103339929989
C         9.45225766081229   18.34109066928771    3.96002077487354
C         8.98509068506622   17.97377701389135    5.21836192841495
H         9.67758803223762   17.58687553238490    5.95262438579053
C         7.64650660164699   18.11779506032328    5.53250517640044
H         7.29058647327745   17.81922751549078    6.50697844798275
C         6.76396969674828   18.63079002068726    4.59717052341824
H         5.71610705225878   18.72757755440816    4.83834625697550
C         7.22742182228307   19.02401374872003    3.35248320703907
H         6.54232596110965   19.43000439029977    2.62328596508047
C         8.56527562911686   18.88538468373870    3.03476642109954
H         8.92553598245869   19.17325890258285    2.05796665556864
C         7.75134351137921   15.00014962173932    4.18769722917770
C         8.14227435924428   15.51158945605063    2.94672377687478
H         9.19113462766265   15.67545054229586    2.74293388854583
C         7.20861268823328   15.81091650061306    1.98778108087199
H         7.50060343186027   16.20833432376961    1.02799050817350
C         5.85541641608949   15.60163054807942    2.24898856890460
C         5.44814817462257   15.08806061027470    3.48198091215028
H         4.39516566419069   14.93319369730096    3.66104492713839
C         6.38630603133903   14.79278116430200    4.43670244806232
H         6.09305878772746   14.39624083783471    5.39581532883237

