87
CSD_code = LUZXUB | q = 1 | S = 0 | Stoichiometry = C34H48AuN4(1+) | MND = 2
Au       -0.00017609255138    0.00031314766636    0.00046810771052
N        -1.91653778083387    2.17072022259121    0.20010426523717
H        -2.57048248400417    2.90539287257328   -0.04838312157427
C        -1.31658934591558    1.41655299464857   -0.71123530724607
N        -1.60022605440746    1.63785163496324   -1.98388526807423
C        -2.50198350778394    2.68458490409440   -2.43461228255380
H        -2.50214138173530    2.71225285661016   -3.52079387865943
H        -2.17477110472587    3.66375636466736   -2.07671063931523
H        -3.52194623546162    2.49514897641726   -2.08976695509599
C        -0.97153288024467    0.86294915441142   -3.04027542232615
H        -0.41811407129205    0.03261926197473   -2.59203801199269
H        -1.74665214019281    0.45317746744141   -3.69922462094447
C        -0.06067577050712    1.68424319283114   -3.81927009224402
C         0.65776724592805    2.41132080431087   -4.44061455274837
H         1.29847813574398    3.02457195121806   -5.00155613091427
C        -1.67704456930531    2.00885940111571    1.59975359537485
C        -0.67426707373115    2.76840312297905    2.20893081160748
C        -0.46992861293978    2.61272407724836    3.57394400085326
H         0.29467380586803    3.19116310853519    4.06772982007401
C        -1.23848998314311    1.73106261868054    4.30979297454669
H        -1.07101284840954    1.62514568059880    5.37037242341409
C        -2.22158485984656    0.98381038463080    3.69047966759397
H        -2.81275970472844    0.29798192423497    4.27499750719469
C        -2.45866223074485    1.10744576936912    2.32778025566980
C         0.18442076173831    3.72706680360701    1.41782430278068
H        -0.13669267607175    3.71412889403794    0.37107896139833
C        -3.53476072038421    0.27825642247098    1.66844230912676
H        -3.55252180247780    0.50330732540319    0.59699171245758
C         0.03120421186795    5.15582093881085    1.94318104383132
H         0.59011633143108    5.84535923735378    1.31542285756447
H         0.40615221296386    5.24034369141411    2.95906381295975
H        -1.01455903870384    5.45545508444239    1.94010855380453
C         1.64949929055127    3.28537488394361    1.45732352904768
H         2.25438552462183    3.94938541043345    0.84504653148496
H         1.75045843865520    2.27137983011196    1.07138286012146
H         2.03558389356253    3.30995399039751    2.47262445380036
C        -4.90910553778835    0.62046212374356    2.24779196302502
H        -5.68354363239321    0.06612696480669    1.72346524034206
H        -5.11515187588451    1.68371381979582    2.14508314223846
H        -4.96050786118391    0.36447443396415    3.30207909524509
C        -3.23310856439196   -1.21358070640483    1.82630829695777
H        -3.97738235972103   -1.80172264169746    1.29522398226157
H        -3.24671461299363   -1.50436365888483    2.87241946013743
H        -2.24920865918562   -1.44810422442666    1.42204704301566
N         1.91585143204882   -2.17099281125727   -0.20022595123137
H         2.56992571742877   -2.90556112704690    0.04825805171272
C         1.31597530652494   -1.41669855388067    0.71106097022264
N         1.59984871825714   -1.63763534434684    1.98369525898663
C         2.50202820085729   -2.68395757590125    2.43454152051160
H         2.50234872281610   -2.71131752490114    3.52073189323913
H         2.17504546026382   -3.66331822551841    2.07696326926446
H         3.52189799919994   -2.49431345465349    2.08949798190314
C         0.97135861652482   -0.86228254913356    3.03985139626441
H         0.41730091989665   -0.03243120546207    2.59150854827253
H         1.74673280664423   -0.45178564688735    3.69795542417311
C         0.06162361577829   -1.68305723686272    3.82056026442421
C        -0.65741929374012   -2.40867893775992    4.44319750604279
H        -1.29888939859302   -3.02098713484603    5.00444951394376
C         1.67653599887651   -2.00890198164983   -1.59986700425361
C         0.67411780378783   -2.76863890952524   -2.20936422771720
C         0.46990566886232   -2.61266065547693   -3.57435897282829
H        -0.29440163446715   -3.19126294832072   -4.06840853286470
C         1.23818921866484   -1.73044890186749   -4.30984549993653
H         1.07077989887000   -1.62426250680853   -5.37040766224336
C         2.22096592333498   -0.98303255873607   -3.69021518484705
H         2.81196372531222   -0.29682462291796   -4.27446856409874
C         2.45796998090114   -1.10702944328052   -2.32754105200900
C        -0.18427470914107   -3.72781110711534   -1.41856359537187
H         0.13634553998412   -3.71451354677501   -0.37166749755304
C         3.53408008072662   -0.27809356729668   -1.66789729540654
H         3.55094805492050   -0.50255915468017   -0.59631159900717
C        -0.02968612025794   -5.15648233868583   -1.94374454969740
H        -0.58860043969356   -5.84635806040693   -1.31636215394888
H        -0.40383046060781   -5.24128682598666   -2.95990105177622
H         1.01627743922931   -5.45542387316263   -1.93988700201874
C        -1.64967857089060   -3.28725851330963   -1.45879176222976
H        -2.25429698032111   -3.95162677290699   -0.84663748741256
H        -1.75164500632502   -2.27327581080600   -1.07310669189738
H        -2.03532900273373   -3.31235917298660   -2.47424205729965
C         4.90852948237997   -0.62173398348301   -2.24617334841931
H         5.68310836570900   -0.06757472931992   -1.72186725496178
H         5.11371137373507   -1.68506326539676   -2.14252542023338
H         4.96064718786106   -0.36663291609714   -3.30064361024984
C         3.23376951503748    1.21390323638614   -1.82668462152216
H         3.97781917380158    1.80163402695211   -1.29482253868236
H         3.24900567840959    1.50436986808212   -2.87285802427035
H         2.24954021086767    1.44933584690131   -1.42377768215421

