89
CSD_code = MABBAT | q = 0 | S = 0 | Stoichiometry = C32H44O8P2PtS2 | MND = 4
Pt        1.93282220854240   14.83054278255898    4.33422507862641
P         1.57481607974811   16.43052600003675    5.87124586792756
S         1.56760697623721   21.62924374536959   -1.81851927892222
O         2.21353118683208   17.84930723317917    5.48791852318698
O         0.03000012615755   16.72030526493741    6.14134089014199
O         1.99405568621468   16.23789315023228    7.41033453112320
C         1.79240295077937   18.22236417828331    1.19381627684187
C         1.85821175825968   17.16584511826445    2.13174118244445
C         1.92119873514451   16.25524735443791    2.93010969782875
C         0.69901764815895   20.19671825315250    0.34956765242066
H        -0.09162058685049   20.93062133240933    0.40087980285880
C         0.76204128827990   19.16446699334628    1.26198247680418
H         0.01573917512914   19.08284381461223    2.03955350864904
C         2.75257526258502   18.33510166861270    0.18449671405644
H         3.54938657568189   17.60755380689244    0.12855771480682
C         1.66304189006328   20.29192102028640   -0.64242084397241
C         2.68578655558339   19.36082916647682   -0.73496509740670
H         3.42612409641503   19.44478330988868   -1.51595660794824
O         3.90045712326550   22.06379132411325   -0.69942619303765
C         3.11067593589584   22.46614247065572   -1.50472409030257
C         3.24603948267379   23.69865652116749   -2.34648508018978
H         4.28761345679758   24.00941931329388   -2.37981725223621
H         2.65419340376488   24.49398458071427   -1.89503469327718
H         2.86709111674259   23.52056530469751   -3.34932019796685
C         1.91561694343146   19.02805147797370    6.23583924192433
H         1.53125758656018   18.75359709662533    7.22360134042295
H         2.86373199573512   19.56239615469847    6.35198193846449
C        -1.41879152144268   16.82110641909197    4.19467854339783
H        -2.17275579632658   16.26440512021716    3.64451799548878
H        -0.57285012474227   17.02270117047364    3.53880728713017
H        -1.84782721828491   17.76408378938807    4.52538324685743
C         3.32189037672342   15.80958809423594    7.69543392781954
H         3.73827789162626   15.29845980256361    6.81456770147236
H         3.93661269624484   16.69158707302140    7.90882977601124
C        -0.94652762714557   16.00615276214661    5.38825399177498
H        -0.52087294943530   15.04679182673485    5.03958058557273
H        -1.77113608705437   15.79949159088695    6.07627879798866
C         3.29337490129160   14.86718968383189    8.88534441864658
H         4.30494866877662   14.56667323321377    9.14312067702715
H         2.71079952472058   13.98506111902729    8.63600638749776
H         2.83657661251871   15.36029731824576    9.73893444880677
C         0.90935670762362   19.88573060242055    5.48772088427291
H         0.76885528369498   20.82995076430057    6.00737093690316
H        -0.04257865031621   19.36663613743797    5.42393690639439
H         1.27214306781478   20.07969092512866    4.48150393934719
P         2.29153608391360   13.22980215826574    2.79844835490340
O         1.65067391803704   11.81149008804471    3.18025507477901
C         1.95063866779460   10.63286097955836    2.43292756167101
H         2.33815522430526   10.90751574072613    1.44646389736948
H         1.00278267519122   10.09875202402248    2.31359486362313
C         2.95435805295133    9.77456512672606    3.18377444788408
H         3.09598093053741    8.83041227352727    2.66428494878661
H         3.90632143915489   10.29324045636625    3.25048087005454
H         2.58854495857504    9.58048873612618    4.18886968902171
O         3.83656432757961   12.93749654123599    2.53250254823646
C         4.81251109234801   13.65381879254778    3.28434900973950
C         5.28522673949215   12.84128064191888    4.47940993362063
H         6.03896195043676   13.39934501708683    5.02851171654470
H         4.43944713777862   12.64048598401267    5.13572455794600
H         5.71466634562840   11.89789665197577    4.15041432191162
H         4.38606516993871   14.61346025421518    3.63133183648138
H         5.63708599998424   13.85994758095797    2.59613213769820
O         1.87549440511958   13.42289254165877    1.25846156248889
C         0.54895637038966   13.85383558938102    0.97131963228431
H         0.13362475715615   14.36898062065169    1.85035411210400
H        -0.06817909968042   12.97290710739342    0.76046050217499
C         0.58078370483370   14.79237332595880   -0.22153233777907
H        -0.42986640547242   15.09442286634676   -0.48112017445827
H         1.16518030024595   15.67394950984608    0.02548949525876
H         1.03714696314486   14.29544676757259   -1.07313952444724
C         1.94569075752778   13.40646125223690    5.73873903037040
C         2.00789884018392   12.49492997880302    6.53601948905786
C         2.07436354606722   11.43875644830469    7.47423483552479
C         3.10265518218397   10.49456525777396    7.40427718704724
C         3.16543038307520    9.46268119349632    8.31713593155399
H         3.95461487855614    8.72728130010180    8.26478441293739
C         2.20326869157104    9.36995160317766    9.31119250981266
S         2.29935540707555    8.03372091879718   10.48845636772001
C         0.75351622823193    7.19974500466636   10.18086308836659
O        -0.03807787108602    7.60248148793034    9.37751566647093
C         0.61851233780910    5.96876651882593   11.02495878805553
H        -0.42334461360255    5.65929731163046   11.06114387350244
H         1.20849632103982    5.17198173362695   10.57364714472978
H         0.99986132369486    6.14818333239637   12.02665774211579
C         1.18246481585711   10.30301104060594    9.40528201779864
C         1.11590183578584   11.32837299387274    8.48542765970272
H         0.32063877938676   12.05753455799965    8.54235506508274
H         0.44353294696536   10.22100742654596   10.18779029752186
H         3.84754800629187   10.57428749838565    6.62515627382056

