82
CSD_code = MABBUO | q = 0 | S = 0 | Stoichiometry = C33H42ClMoNO4 | MND = 6
Mo       -0.71526285500152    0.80253766117234    4.57452281635040
Cl        0.14591701435557    2.95383323592756    4.23161516660589
O        -2.13145414511684    1.28612936652493    5.26583816523142
O        -0.92701845298265   -0.97768814791944    4.60168438295295
O         0.39562785401418    0.78177043945406    5.94096777517668
O        -1.09601593494325    0.85960423691623    2.81981106213318
N         1.43432775160790   -0.09746344793872    3.65550874979537
C        -0.63079243483415   -2.20581660092406    4.21681891194997
C        -1.62279792084193   -3.20199221429656    4.08094062877050
C        -1.21700980815797   -4.44715076390231    3.62465872855048
H        -1.93947814098536   -5.23614288040952    3.49941206671619
C         0.10693388827099   -4.72027308512841    3.31675911874354
H         0.38191574446492   -5.70088596563224    2.95978533475125
C         1.07368650011795   -3.74661411506660    3.47446782859208
H         2.10871438743068   -3.96254598083437    3.25110142065216
C         0.71748265697085   -2.48737223941059    3.93094054159711
C         1.75559609150058   -1.43116529071936    4.20127091685569
H         1.87432118925832   -1.32577941102638    5.28847039717662
H         2.72389717021655   -1.76734612526459    3.79261675857624
C        -3.06826829026846   -2.87049756924610    4.42533252947802
C        -3.57470678226621   -1.78139185391097    3.46734759899940
H        -3.03411977742876   -0.84490838557325    3.62540502742716
H        -4.63069222928415   -1.59345296244904    3.64787381974784
H        -3.45050896936327   -2.09713532185789    2.43241222713869
C        -3.98577778190212   -4.09140598327991    4.29772083014473
H        -4.01106274637130   -4.46104976820283    3.27533957566533
H        -4.99867567944135   -3.80840950973994    4.57485121957255
H        -3.66678411586393   -4.89177882598460    4.96129243513923
C        -3.14909474553645   -2.35771204308886    5.87195656137382
H        -2.68340911524523   -3.06806332725916    6.55295248474085
H        -4.19085205603279   -2.23490231163709    6.15910368852083
H        -2.65689746240365   -1.38917379356744    5.97551744175809
C         1.61105422778460    0.98951189283028    6.42490551129866
C         1.80754645563868    1.18945094615659    7.80957848325014
C         3.10440798227180    1.39537594943320    8.25361657778095
H         3.29842657673125    1.55738144413992    9.30044520407673
C         4.17893544271386    1.40363243200288    7.37924686785190
H         5.17641137811042    1.56826669339578    7.75687191957888
C         3.97678002148329    1.20349004317798    6.02847312824293
H         4.81562493697708    1.21553406877048    5.34737872138198
C         2.69891406691105    0.99394913226385    5.53104541554405
C         2.51616446116538    0.82211643245266    4.03933381343180
H         2.30338515511688    1.80197983363825    3.59240436028641
H         3.46985336221765    0.45969755931656    3.61574251615427
C         0.60144155385625    1.18993331943486    8.74033205508356
C        -0.35004952933744    2.32664566128756    8.33264085041350
H        -1.15609660713514    2.40928126007712    9.05865347484529
H        -0.79931529178237    2.14939199356625    7.35255555688335
H         0.18751130059077    3.27276482296306    8.30152670287683
C        -0.12446792686786   -0.16241341776570    8.65053621261928
H         0.55834962368220   -0.97514081192608    8.89530907519494
H        -0.53126619924005   -0.33025424647371    7.65161577572521
H        -0.95203332170445   -0.18158519109351    9.35620599966835
C         1.00377424945953    1.41142220413087   10.20292844660673
H         0.11199141837513    1.39581756067277   10.82557359237338
H         1.48634375794737    2.37672189783511   10.33453144546479
H         1.67003062821538    0.62576424837651   10.55221259542981
C        -0.51196021631083    1.39692132863973    1.74687212900337
C        -1.14669270633037    2.36873882250066    0.94556630490762
C        -0.38218985369140    2.96637922873700   -0.04819861411284
H        -0.81406632107375    3.73686692603793   -0.66411293247726
C         0.93603184623139    2.61423973246802   -0.28106664503619
H         1.49720021066991    3.11560380371690   -1.05468310280632
C         1.52230319920006    1.60599532521179    0.45785924272981
H         2.53689089659050    1.29490089596705    0.25270557911688
C         0.80419469711754    0.98663896321385    1.46690996275508
C         1.36527558832829   -0.20988534589825    2.18906206450185
H         0.71489813185127   -1.07044431474662    1.96969858149297
H         2.36799929767083   -0.43556925675793    1.78811884051775
C        -2.61412323708099    2.71937135165814    1.16030947546258
C        -3.13269689637300    3.70774288489875    0.10920447176913
H        -3.00543926201247    3.31733652702600   -0.89808371139138
H        -2.62928747891942    4.66782440274452    0.19060324609545
H        -4.19544412128585    3.87346054066099    0.27208613805612
C        -3.44648365006458    1.43345728407319    1.05004501557085
H        -4.50084378872020    1.66049390032178    1.19058161750418
H        -3.14878770185365    0.71629959390956    1.81115628663188
H        -3.31544658030426    0.97999944621391    0.06863332178863
C        -2.81515688940091    3.35336039095696    2.54418169759516
H        -3.83035188736197    3.73653011348791    2.62792263851386
H        -2.11980347997425    4.17900733922277    2.68550615574726
H        -2.66507832402213    2.62823737134361    3.34696172311833

