80
CSD_code = MABFEB | q = 1 | S = 0 | Stoichiometry = C26H49O2P2Ru(1+) | MND = 8
Ru        4.15066551609021    3.03026008747667    7.71198776521613
P         2.43679677940629    3.00119893692532    6.08932425825332
P         2.75315854521885    2.20312527676237    9.41635397547053
O         5.24999542008425    1.26936763158394    4.50510212364099
O         5.96951895489046   -0.85434519810082    4.69114143823421
C         6.32299014326066    3.54447799067413    7.77552628916536
C         5.75120313149637    3.85867607586099    9.04404871020039
C         4.79949234839532    4.93396081842705    8.84102702325263
C         4.79178687179618    5.26543372238144    7.46795307366762
C         5.69410756511642    4.36293575169853    6.78514261665789
C         7.53466167736827    2.69660847314389    7.55060362984392
H         7.62312152788822    1.91718101422154    8.30393406433848
H         8.42337799145604    3.32844851222017    7.60966484436750
H         7.51684506691291    2.22952230703646    6.56854200163040
C         6.40491068804048    3.53524144427046   10.35375452191396
H         5.78809633232563    3.82921954664049   11.19928486804602
H         7.33907660859111    4.09788270440304   10.41580072827797
H         6.65056562648639    2.47955179725078   10.44244481283613
C         4.24473401609002    5.79031073158168    9.93980053268857
H         3.99792428845755    5.20706578066059   10.82544586989155
H         3.35648718258997    6.33307806116895    9.62124456547949
H         4.99801101770231    6.52800298416639   10.22493982441373
C         4.28129562388095    6.56049431416762    6.91344028693632
H         4.14330856005706    6.52539023772025    5.83595527155848
H         5.02583339536688    7.33202515868005    7.12335746593581
H         3.34667560107418    6.87069070134898    7.37428059119414
C         6.25449691201566    4.54871663493761    5.40754644970426
H         6.37851564656129    3.59236815784156    4.90335364874378
H         7.23887831399348    5.01410779767105    5.48975089940196
H         5.62931851745702    5.19169288227663    4.79441734143567
C         4.61514778879235    1.33678593021304    7.12013657718423
C         5.15827470296160    0.26311389510148    6.61957184034122
H         5.38651898432324   -0.62278230552857    7.19812841168783
C         5.50758903621323    0.13508644713918    5.18990139836986
C         5.55451311127390    1.21015265942985    3.11386373731458
H         5.26638656775182    2.16943509592353    2.69091105905037
H         4.99924275769032    0.40023904388430    2.63736416158509
H         6.62123205112298    1.03324411351886    2.96448071137033
C         0.79868348420333    3.75286531620363    6.50396444525945
H         0.15808240072484    3.71090911753533    5.62193697913581
H         0.34345500269886    3.13868582228696    7.28454180791707
C         0.94165734408894    5.18561143288519    6.99493866865285
H        -0.00463750079820    5.55036383602734    7.38825309623450
H         1.24797851765954    5.84649092231996    6.18791750955759
H         1.68648850163074    5.23133892198103    7.78948991695658
C         1.99839377581692    1.33560989214883    5.39647434954262
H         2.64893654147128    1.21066172511053    4.52723191416765
H         2.31128946117915    0.59100099050876    6.13173333440910
C         0.54513731135338    1.08495951157786    5.00579758424164
H         0.46208216598706    0.08220199650837    4.59173993909879
H         0.19557366298848    1.78432757728988    4.25241460404407
H        -0.11703132200018    1.14306135448294    5.86588783309407
C         2.94228644909877    3.92081460740627    4.57458427392976
H         3.11123588282751    4.95748707094214    4.87291210893603
H         3.90572537861893    3.48612995745169    4.29618455332932
C         1.98931301424270    3.88318747834751    3.38543160218605
H         2.41407257824281    4.46644617970638    2.57034296576253
H         1.02239821371605    4.31575450053367    3.62958287942104
H         1.84194989972380    2.86937379736777    3.02477100004744
C         1.53495886659119    3.36469549145054   10.20753302896757
H         1.86956331110881    4.38027277890103    9.98511579295144
H         0.58836185558240    3.21693560228121    9.67958736055786
C         1.31561337942341    3.24162021556575   11.71212587182613
H         0.57037296285155    3.97278402851327   12.01967306524436
H         2.22829485116858    3.44453760344442   12.26632525739781
H         0.95179328248776    2.25787092928230   11.99277976681965
C         1.69898879928186    0.78100459188822    8.88713767051252
H         1.08612520774449    1.14620149866611    8.05829818263005
H         2.38978821427997    0.03740913473067    8.47757004182219
C         0.80326542673885    0.14592180354456    9.94393531382322
H         0.23710773884158   -0.66467596544086    9.48983135910785
H         0.09174409645194    0.86214517615005   10.34594904657614
H         1.38078812063881   -0.27539641846865   10.76180654774724
C         3.67008176799011    1.47839171629866   10.84118913874859
H         4.22100483697000    2.28606684433577   11.32625394455142
H         2.94651476806878    1.08889819095106   11.55947047229369
C         4.62703123812451    0.37991771328448   10.39776511565448
H         5.29562659556012    0.10992735185515   11.21206141223286
H         5.22206814625620    0.71683389540420    9.54694810817290
H         4.08398090014182   -0.51280940610969   10.09848474720324

