74
CSD_code = MABFAX | q = 1 | S = 0 | Stoichiometry = C24H47P2Ru(1+) | MND = 8
Ru       10.24696798080918    1.22153710859080   14.41491568699564
P        12.47719821352484    1.96359211771620   14.22102220497127
P         9.18853626761291    2.62852068954117   12.85316826924051
C        10.53873112037805   -0.02199774487510   13.03463415805299
C        10.65761161602311   -0.98687291178158   12.18605637626780
H        11.53451182247618   -1.61635636410209   12.13249187208744
H         9.89625701352197   -1.22919674823702   11.45785681324322
C         8.51018599573018    1.57064481510174   15.89866665436842
C         8.56341528784758    0.18449980214418   15.50871834686438
C         9.80646685773495   -0.34977640691006   15.96966306709727
C        10.54255194408964    0.70999399525842   16.58815358023674
C         9.74365291480781    1.91003366618015   16.51398146036833
C         7.27042643358104    2.40455550470408   16.00378279566313
H         6.41976957355931    1.92211535986690   15.52902448682490
H         7.39251235103712    3.40126922117027   15.58287075342513
H         7.03331706434177    2.52530303938397   17.06315900158186
C         7.38987115038278   -0.66006619293435   15.11378228624536
H         6.64261999985992   -0.09546400872191   14.56238414847866
H         6.91894975194829   -1.05173074489641   16.01819492442965
H         7.69916034822045   -1.50812960170556   14.50639496275884
C        10.13125100128378   -1.81029303202294   16.03962285840126
H        11.19350361329398   -1.97899860867235   16.20000181542067
H         9.83311104878082   -2.32907101572142   15.13023713814257
H         9.58728555318247   -2.25547646372343   16.87505505516492
C        11.65469943942674    0.51270312091255   17.57108492737801
H        12.29577160520132    1.38832168189616   17.65222547965657
H        12.26190871392603   -0.35699934349212   17.33133449746183
H        11.20729770263135    0.34273411524945   18.55365269800898
C         9.95394123064884    3.13401631288290   17.35670634146298
H        11.00746329819258    3.37936627954942   17.46625848522804
H         9.54828693941228    2.95260499835801   18.35509359277928
H         9.44000345557671    3.99953870579734   16.94267125450144
C        13.07888501451931    2.33295602535467   12.51056129551246
H        12.61666099153869    1.58851145841461   11.85579592274399
H        12.65339885304999    3.30821831846513   12.25953797484571
C        14.58574795007952    2.37527209339801   12.28165634618065
H        14.77826600589418    2.72700037880803   11.27016134216227
H        15.03545312428618    1.39161541280866   12.37844862511116
H        15.08071451255889    3.05892339113251   12.96695411429497
C        13.08502072896415    3.42990442806476   15.17073366685379
H        13.00069740449661    3.18443666101732   16.23264402369053
H        14.14810831833194    3.55247381638138   14.94744712810058
C        12.32729863200016    4.71411787205233   14.87374520474801
H        12.68579570895559    5.51939984608383   15.51117843404522
H        11.26492674358260    4.57483903637242   15.05771365918076
H        12.46297047157957    5.01828971735428   13.83863720872282
C        13.73148705003324    0.74416971760995   14.81432311498425
H        14.71977269338280    1.15555221416058   14.59567079239758
H        13.64082408494612    0.67269436888345   15.89866984165166
C        13.57048598621974   -0.63168440735558   14.18738491719321
H        14.29389330597825   -1.32697834702128   14.60808124853206
H        13.72328608577806   -0.58642197256671   13.11169309954223
H        12.56687605326551   -1.01209404412201   14.37558592094030
C         7.47236675468806    2.07993598486510   12.45126081898337
H         6.89627911616224    2.07335642434535   13.37755360589666
H         7.02627912061549    2.82012862466164   11.78452051149267
C         7.44371954854142    0.69929249638478   11.81027190079847
H         6.41630437660902    0.36037568718056   11.69320560502944
H         7.97932009286172   -0.01475238389309   12.43346087326006
H         7.90867159934711    0.71468355248699   10.82778838528727
C         8.97046626535880    4.40620747367193   13.35558612700504
H         9.10051278059067    4.44218412337416   14.44101899093890
H         9.81711007990964    4.94221742795683   12.91584176301133
C         7.66494569119599    5.10957371193591   12.99701832034897
H         7.71111076841839    6.13752912099042   13.35252054254163
H         6.80932199410501    4.63180477853267   13.46758139748007
H         7.49711322959964    5.13753110378659   11.92482033547062
C         9.92885685832987    2.76607834378499   11.16349219439679
H        10.86875979428269    3.30584283374490   11.29029311699833
H        10.17720845470774    1.74512116837908   10.85878814864463
C         9.10699131524142    3.46145061906897   10.08353668277202
H         9.68230155204344    3.47589012028783    9.15993455237021
H         8.89153411714202    4.49156536350792   10.35294788479526
H         8.17321946209579    2.94576609320592    9.88096836841014

