102
CSD_code = MABKOQ | q = 0 | S = 0 | Stoichiometry = C39H59MoN3 | MND = 4
C         2.83873195275239   11.79524158410988    6.16226231896654
C         2.56273040428848   12.47268032221505    4.97310510287543
H         3.37657764081789   12.72362913524206    4.30779064458473
C         1.27679721393765   12.89029069999544    4.65593963642611
C         0.24271683103950   12.62543783866053    5.54047077332166
H        -0.76087930360228   12.95837716342782    5.31155644705391
C         0.47985020545569   11.94428649446906    6.73172736373593
C         1.76816121937507   11.54121083211918    7.03433551551304
H         1.96016599019378   11.01944035646465    7.96217051254004
C         1.03189723239363   13.62910058263145    3.37478793753367
H         1.13536889876209   12.95029752202564    2.52971075569538
H         1.76319358291033   14.42585038248462    3.24953033983544
H         0.03359629391780   14.06090261107872    3.35539184926681
C        -0.65712564678633   11.63228370358872    7.66064833381272
H        -1.38775131438165   12.43833713799238    7.66213968057288
H        -0.30054540247890   11.47766815627459    8.67623831721878
H        -1.16513262411108   10.72190321243983    7.33889346422835
C         4.78528150771417   12.11733972753863    7.59967249533707
C         4.59193146235635   11.35803777295538    8.92472719957060
H         3.58573735560572   11.49467676157292    9.31238530160906
H         5.29229655553071   11.71826935587794    9.67472681910371
H         4.76436864851928   10.29883804180786    8.74716278621136
C         6.28629426096453   12.19852662187953    7.28873195388800
H         6.65615514163425   11.19739622018537    7.07249774795026
H         6.83183278875468   12.61849293237127    8.13069023786723
H         6.44993564436850   12.83376835425124    6.41989803184492
C         4.24940939579539   13.55071317004424    7.74722946412524
H         4.34641445455568   14.08810579143643    6.80518683823468
H         4.81775294277452   14.07819159144061    8.50990191114098
H         3.20010983409326   13.55341346755714    8.03442453743125
C         5.10515155488102   10.95572520856847    3.15572704320492
C         5.68507431992000   12.20335604021455    3.41965451223389
H         6.44142004227653   12.27043716587048    4.19309890272217
C         5.30133924370165   13.33899391192980    2.72295789954005
C         4.32755518153528   13.22920333278573    1.73655372037704
H         4.02886636186141   14.10886675949952    1.18303075138788
C         3.73620193277825   12.00644562650098    1.45091583536229
C         4.12982431802818   10.88071106055921    2.15967185494003
H         3.68835302796063    9.92296934749498    1.92471379197736
C         5.90806263990793   14.67041469091487    3.05637021886653
H         5.81336260480733   15.36180881261916    2.22227694954327
H         6.96105728824008   14.56442224940746    3.30912493042811
H         5.40009652008831   15.10735999503597    3.91758490075960
C         2.71828701964742   11.88100133171021    0.35610038071405
H         1.97294393201979   11.13068187631318    0.61175977826452
H         3.20657845300685   11.56677209984662   -0.56755405660088
H         2.22401400460329   12.83177780366946    0.16715359079179
C         6.76056882861159    9.19646358126184    3.36810284394420
C         7.99011790818195    9.83044877168888    4.04382201703555
H         8.15113448566343   10.84146186942492    3.67720917110460
H         8.88403809052805    9.24727531154459    3.83500985857279
H         7.82283224481880    9.86344076147745    5.11867564715612
C         6.71298217261180    7.70319032463369    3.71069442296556
H         6.47258462293022    7.59564101185502    4.76647201894646
H         7.66869193291836    7.23005830792947    3.49743654246070
H         5.94349000222771    7.20796048168019    3.12113627022734
C         6.90037208413449    9.33748833028282    1.84320742592464
H         6.02618109374628    8.92783964394984    1.34079165297719
H         7.78027540234258    8.79361459470696    1.50683034071831
H         7.00650015800235   10.38061011149904    1.55150788116628
C         2.32213199910723    8.66601711080780    4.28234090907476
C         2.80628323832523    7.87535056867772    3.23301090694277
H         3.66777766966564    7.24332619109883    3.41816345299964
C         2.20998426199659    7.89470061922376    1.98175354957854
C         1.10585440659526    8.71405426871400    1.77478134958855
H         0.62628703652889    8.72401609004439    0.80497910284430
C         0.60663139912388    9.51411782061173    2.79405853028088
C         1.21714895919519    9.48393279354079    4.03929771951407
H         0.82066364571723   10.08552369507716    4.84464354645767
C         2.73328670256430    7.03326347152038    0.86954961543120
H         3.76539981761193    6.74281374363976    1.05337122261729
H         2.67840951098002    7.55541889912233   -0.08402944307807
H         2.13522791236885    6.12493985198096    0.78735712613923
C        -0.60929602622510   10.36160419416926    2.56326806273943
H        -0.57748522757770   10.83425830505871    1.58287949336192
H        -0.69282472573901   11.13025930393644    3.32651574008358
H        -1.50541720685152    9.74074185704558    2.60279623346254
C         2.43181504162398    7.50485193945485    6.40427312784064
C         2.74535829173045    7.86416431378999    7.85942036688588
H         3.80683020807030    8.08131102113246    7.94915989921319
H         2.47546696480171    7.04484500671108    8.52205423758302
H         2.18312876080765    8.74888365111307    8.15065753713947
C         0.91103583104778    7.31740270295852    6.27297567402816
H         0.39427078380375    8.24635594119509    6.50528988612972
H         0.57727155576579    6.55165485721545    6.96960324192298
H         0.63660755928663    7.01087169966432    5.26537308050281
C         3.13383040424798    6.18354432631955    6.04064875197718
H         2.78040836284052    5.81478528793744    5.08009649305244
H         2.93288353457780    5.42349672939120    6.79209946593927
H         4.20685117494764    6.36020760467485    5.98442441371068
C         5.69204010574687    8.92058688968560    6.62956013055629
C         6.68329212095088    8.32612448737455    7.52950320686893
H         7.69376620025882    8.54433090625137    7.15621158380483
H         6.60769434698736    8.78957514176006    8.52283490975176
C         6.55943046572443    6.80502830502663    7.70041340046958
H         5.59080234857977    6.54487360033122    8.11908184029495
H         7.33608070953913    6.43851692896051    8.36971278853840
H         6.66808656962141    6.30347828680074    6.74129785505960
Mo        4.49115795029078    9.74840841269542    5.51821219246918
N         4.15038152042662   11.42230702678963    6.47885731495499
N         5.52605916837644    9.81435107625842    3.85874441867868
N         2.91885600741515    8.59015711323365    5.55288564937720

