120
CSD_code = MABKUW | q = 1 | S = 0 | Stoichiometry = C64H53P2Ru(1+) | MND = 9
Ru       -4.35139924636745    3.37370938673284    4.64554519692777
P        -2.56556261550161    4.85397850705614    4.46022260164378
P        -3.94281685725234    2.09136783205233    2.73464810191720
C        -5.20737786157618    2.50384667171841    7.58097209551072
H        -5.95521002932323    1.93848834088104    8.14424395253285
C        -4.75596485347619    3.71174609070852    8.34954707969881
H        -4.35787792257519    3.64695036184184    9.34464338228678
C        -4.91622481488132    4.83728485495168    7.64316252938566
H        -4.68280957905546    5.83866615897655    7.95762203723139
C        -5.48744979486766    4.51331408013978    6.34879914551134
C        -5.84672133061836    5.31041074154954    5.25120678502112
H        -5.68542530141013    6.38237796561371    5.27673960422584
C        -6.54062394465160    4.71714981735165    4.18429126443934
H        -6.91041306818757    5.32836775605159    3.37096896004282
C        -6.84388462251945    3.34985547776661    4.19377000345140
H        -7.45054170506852    2.93937152819898    3.39576924752505
C        -6.46556034999709    2.52448605113566    5.27029612671194
H        -6.82007145779366    1.50114328106584    5.32257226736603
C        -5.76193519791623    3.11557011865171    6.32818031630718
C        -4.07115543973522    1.53998595257493    7.13671580579139
H        -4.56792642359220    0.60717705432784    6.83334042653929
C        -3.10636624819229    1.17501987779901    8.27590325102450
H        -2.57468008446393    2.07808583783519    8.58746957510424
C        -3.83844948703248    0.58336584277105    9.47853280604667
H        -4.50085539728777    1.30666653585268    9.94600979831142
H        -3.11804353871179    0.25884076963430   10.22557130761893
H        -4.42624560964554   -0.28284734016252    9.18056757108673
C        -2.10342669393738    0.15280150888354    7.74253286784289
H        -2.64903537876751   -0.74579521617452    7.44581048105770
H        -1.41266112593813   -0.13319343810532    8.53786634247846
C        -1.29320615343425    0.66442999108504    6.54438503728439
C        -2.06326258722907    1.68431323839229    5.72387616970214
H        -1.50055556843403    2.07240732285886    4.88291528578941
C        -3.30500033062993    2.08425156262087    5.93685700242047
C         0.06257027975190    1.22455234918400    6.92607417159146
C         0.37466311375695    2.20673007558924    7.84147557136475
H        -0.39246072189583    2.69297196853011    8.42422145174415
C         1.70594923996503    2.55449029064882    8.03084407145702
H         1.95943088231492    3.31994048690968    8.74935720112362
C         2.71258279923334    1.92475072239286    7.31626901296025
H         3.74159002523263    2.20782486338619    7.48170968220015
C         2.41125972980531    0.92343038804228    6.40689505688892
H         3.19671783673785    0.41833633614517    5.86545390342392
C         1.08484988685391    0.57445175069955    6.21789421942371
C        -0.89559508725693   -0.45389313846817    5.60131880491125
C         0.49004677174388   -0.46369988958587    5.39338046159763
C         1.06678629854048   -1.39319933315906    4.54354432061417
H         2.13495258019614   -1.40992373275101    4.38732632105605
C         0.24563553074932   -2.30681279018423    3.90135520308656
H         0.67763536473119   -3.04023839801091    3.23690970370383
C        -1.12548402725238   -2.29435882388906    4.10620996098788
H        -1.75052131113743   -3.01407171693689    3.59895294083521
C        -1.70640743859842   -1.36622935702519    4.95969261563700
H        -2.77600331771558   -1.36205124116678    5.10785920950118
C        -2.72746753106986    6.32089319301810    3.37193947288489
C        -1.61785743738217    7.14758155049341    3.18770735641271
H        -0.67778635518717    6.89569818823163    3.65760132197060
C        -1.72078139843752    8.28723450142462    2.41373461714992
H        -0.85712980926135    8.92025102614773    2.27810108923510
C        -2.92738585612143    8.62268431571856    1.81742553048281
H        -3.00360441297263    9.51454711935365    1.21480659776917
C        -4.03347615420942    7.81256463002840    2.00251686774395
H        -4.97814426537221    8.07049360937421    1.54683414402600
C        -3.93243947554884    6.66944810543314    2.77795000423271
H        -4.79508949582623    6.03429110383683    2.91018753110660
C        -0.87999994543060    4.34952885423061    3.95949586139217
C         0.16195873794154    4.10345810293934    4.84634544610769
H         0.01670241937171    4.21236958193003    5.90932023931616
C         1.40598860245230    3.73007911656647    4.36784071986931
H         2.20496082775392    3.53902426009732    5.06752934435040
C         1.62606395783357    3.60976854533514    3.00687115032251
H         2.59928695272917    3.32381428941185    2.63897428577184
C         0.59831675228578    3.87535156699916    2.11635025988420
H         0.76879580715343    3.80682990632471    1.05305178928335
C        -0.64791794844044    4.23503983711141    2.58961693082619
H        -1.44698803919066    4.45380389856532    1.89452885389976
C        -2.41406700223418    1.81135719246973    1.76225260042096
C        -1.45904142859991    0.98597733493556    2.35091261784156
H        -1.63595540452448    0.59566717979027    3.34069458632025
C        -0.31112628638450    0.63930901936790    1.66555605624202
H         0.41811067202731    0.00076939247723    2.13964841898420
C        -0.11282623028693    1.09526756124273    0.37267871474572
H         0.77816032682715    0.81866420811579   -0.17003963628108
C        -1.07152818720728    1.89266865992575   -0.22920407996118
H        -0.93316164512033    2.23281829962774   -1.24492083190265
C        -2.21810757481576    2.25309329112246    0.45765387518170
H        -2.95825380679591    2.86298448053401   -0.03871322730022
C        -4.48676116962972    0.34740951075025    2.74377160461776
C        -4.47155606947443   -0.37552040070010    1.55130230442563
H        -4.14273773594976    0.10112172656429    0.63833328505938
C        -4.87754841502556   -1.69565826127142    1.53830619854776
H        -4.86716970979207   -2.24981786627301    0.61192482881638
C        -5.29763029201281   -2.30997252795432    2.70886510047147
H        -5.61427103329681   -3.34159131898135    2.69373667282079
C        -5.30751759871884   -1.59903704945810    3.89584386645053
H        -5.62780616223574   -2.07849438387496    4.80964503473648
C        -4.90013867969511   -0.27546612640585    3.91094611789734
H        -4.87774777958434    0.28865801063980    4.83081607272333
C        -5.06943159581753    2.83460620433992    1.50481350866284
C        -4.73697001131773    4.09610802733817    1.01403016691033
H        -3.81210585051093    4.55749223857288    1.33765661532510
C        -5.57171736567253    4.74703315145831    0.12504055846022
H        -5.29795440733904    5.72026331539304   -0.25475077619218
C        -6.75508824478880    4.14713305361617   -0.27628867420010
H        -7.41010933766831    4.65237508408390   -0.96929141041124
C        -7.09663218700703    2.89711752469647    0.21385176168427
H        -8.01870208231635    2.42917285918552   -0.09729635737156
C        -6.26189286421659    2.24094507996972    1.10244989370818
H        -6.53573851787204    1.26490284328921    1.47865962112653
C        -2.30252504224835    5.67845430886812    6.06985645527874
C        -1.85619639849365    6.82346233747889    8.56828300145558
H        -1.67273006723193    7.27136990377713    9.53289352353518
C        -2.25001964667407    7.61207287630519    7.50039271343668
H        -2.38208933673367    8.67547626690516    7.63350224269783
C        -2.47277816028168    7.04740269122042    6.25598600940991
H        -2.77640442856907    7.68089391234741    5.43545334291729
C        -1.94926983383678    4.88445590848219    7.15960028389691
H        -1.88157241535406    3.81530374687819    7.01779831156999
C        -1.71221627775184    5.45646083046119    8.39553365092943
H        -1.42063846452003    4.83873926710352    9.23228765243857

