64
CSD_code = MABLUX | q = 0 | S = 0 | Stoichiometry = C22H33BBrN6Nb | MND = 8
Nb       -0.41348598593538    2.62251296037772   -2.33701860000187
Br       -2.17920782007130    4.52492330506836   -2.25583676656193
N         0.65084051159419    0.67129673219330   -2.83030416685900
N         0.14882634798304   -0.15786558392315   -3.76197535649046
N        -2.22149659909887    1.20650500549437   -2.36630954238022
N        -2.27873726085708    0.21802189164266   -3.28507334705868
N        -0.89576966597922    2.50547737473601   -4.70545807344262
N        -1.20630181544922    1.32066378787749   -5.25440742313767
B        -1.23581975754398    0.04555211291104   -4.40014691160610
C        -0.19050049368927    2.00854836372332   -0.19166397784281
C         0.86835300475567    2.42981343406606    0.79867239481896
C        -0.51560459748521    2.97571704101633    0.92857337264755
C         2.50996348960408    3.52875768150972   -3.99845548533917
C         1.40594827831773    3.51026196552330   -2.99983400368072
C         0.97972563203450    4.21882762353748   -1.99469127526435
C         1.31180888731433    5.50802376173545   -1.32799335219933
C         1.85000884934807    0.21139341244296   -2.47628408308973
C         2.12698595561096   -0.94604113759313   -3.20540331461099
C         1.02376590315955   -1.14878768394542   -4.01469170796630
C         2.71892487560134    0.84043571464504   -1.44738352472117
C         0.80614870518597   -2.23738610880523   -5.00253548154847
C        -3.31088403543304    1.11359167413369   -1.60185643329546
C        -4.08324962357416    0.03421741954003   -2.03642445915733
C        -3.39895310758962   -0.50848627178316   -3.10686950988281
C        -3.65616626707529    2.03978834078075   -0.49193495142867
C        -3.78859498110477   -1.68093508359333   -3.93321521588933
C        -0.96245994710395    3.43415847092161   -5.65504085015650
C        -1.32579116669229    2.82291627661460   -6.85969433631831
C        -1.47376677945742    1.47975341334138   -6.56607093293885
C        -0.70935479323802    4.87997557322364   -5.40974460462394
C        -1.85568085977600    0.37298433697781   -7.48156921691537
H        -1.51068987142396   -0.88450019062804   -5.06884501019935
H        -0.55293711927491    0.99458212967557    0.04288774195356
H         1.65461099248926    3.10237433783670    0.48074625824454
H         1.19673070609178    1.71188119136002    1.54221639479905
H        -0.67401517633054    4.02022228586043    0.68368031299323
H        -1.11653375100746    2.63360429833085    1.76423597639123
H         2.10527661274858    3.55702751657955   -5.01203043598424
H         3.15516320891221    4.39909745509897   -3.85269999719357
H         3.11620298188542    2.62508423005569   -3.91303501933085
H         2.20904543388913    5.95334121730078   -1.76518372891499
H         0.47477622618063    6.19959367086956   -1.44743252603236
H         1.47127824830255    5.36801836758405   -0.25865862170825
H         3.00970933170544   -1.55030994526702   -3.15077703745768
H         2.64725802311429    1.92635210580026   -1.48960927031030
H         3.75066798729428    0.53260157315235   -1.60312721762849
H         2.41107026368507    0.52007449414878   -0.45260849487142
H         1.67051838998368   -2.89613589500358   -5.00673337728238
H         0.66979394951706   -1.82943996984557   -6.00249885224837
H        -0.07853781990167   -2.81955848906965   -4.75123878842855
H        -5.01400678596807   -0.29977094299760   -1.62510801767429
H        -4.25702686344127    1.51289590493214    0.24675710716011
H        -4.24164506938867    2.87585471607859   -0.87738396959451
H        -2.76709576014164    2.44561706582497   -0.01662527003438
H        -4.71874995861177   -2.09334500566295   -3.55114694220923
H        -3.93450077200767   -1.39192186241829   -4.97258019018894
H        -3.02104205629166   -2.45223245088084   -3.89958851760611
H        -1.46436254460355    3.29750794501262   -7.80986707728455
H        -0.29842339686431    5.34216854234853   -6.30515381637310
H        -0.02113817749511    5.02233730622433   -4.57478533766938
H        -1.64520879605270    5.38355100931715   -5.16168041013695
H        -2.00315640703581    0.76863965227030   -8.48291029168776
H        -1.07947669833289   -0.38984047557955   -7.51477392010629
H        -2.77953021499992   -0.09918759272442   -7.15140051642531

