57
CSD_code = MABLUZ | q = 0 | S = 0 | Stoichiometry = C28H23ClNO2PPd | MND = 4
Pd        4.39706768935083    4.60405083778960   13.61818255046728
C         3.02657576629699    5.75508430624620   14.70110819770544
H         3.10874125134697    5.40910804090511   15.73904757808126
C         3.24874979048869    7.24784422536857   14.51207347337046
H         2.73052393768274    7.57353101903386   13.59768261133163
C         2.84923078376537    8.06032592527590   15.68670561833435
H         3.25190407514506    7.72668219814613   16.63449182121571
C         2.01703871566894    9.10016782087990   15.62218143899781
H         1.60207469850630    9.37328477566981   14.65934284784351
C         1.58584028221635    9.92858827372016   16.73853934869624
C         0.53260748493330   10.82493557478026   16.54505899493041
H         0.05815755265728   10.87888455315849   15.57553609240965
C         0.08602797944356   11.63063683078886   17.57421440915169
H        -0.73388607023274   12.31342753259783   17.40573010714284
C         0.68905296045760   11.56565020201460   18.81944705949692
H         0.34294426019726   12.19587650719694   19.62505841384220
C         1.74260421444160   10.68947840511671   19.02421981135178
H         2.22102751520462   10.63913025943847   19.99175549244047
C         2.18783785963369    9.87996568593860   17.99749619986907
H         3.01616791696970    9.21031771769541   18.17546204196455
C         5.68401113521816    8.92877072544703   13.73404784993951
C         5.21676401436719   10.07819094980252   14.35891021831632
H         4.43564466499559   10.01461084410651   15.10196554410549
C         5.74245373879657   11.30857484423543   14.00634670621702
H         5.37660138860851   12.20394197918201   14.48698194708562
C         6.73059220802892   11.39386142779915   13.03853168285239
H         7.13637572793015   12.35738260961189   12.76816557969294
C         7.19262768526198   10.24747631227412   12.41184294799374
H         7.95788296082450   10.31530587013292   11.65319299072991
C         6.66940797421027    9.01517133563772   12.75749841609926
H         7.00471317291633    8.10927854681991   12.27350040300980
C         5.91947969893585    6.70328332031252   15.62930006243713
C         6.02989262768359    7.56602486496470   16.71486124299557
H         5.65182062433835    8.57507373501869   16.63651444311309
C         6.63142552185099    7.13609784665112   17.88379375078700
H         6.71251097063521    7.80788238532089   18.72562116081404
C         7.13111376343439    5.84637043103771   17.97277789287465
H         7.59689235159035    5.51151406962238   18.88749195015874
C         7.04830738803396    4.99301469551465   16.88438869910490
H         7.45874319783849    3.99632372611423   16.94433447215555
C         6.44675290069414    5.41512120026229   15.70903449568977
H         6.43389678793190    4.74519932506108   14.83843742238057
C         1.97700420362487    5.13855288948978   13.91127287203809
C         1.98170434472053    3.63381947662902   14.10887900585763
C         0.87716917667461    2.80495860973821   14.20693697635525
H        -0.11200435060968    3.23169428396631   14.15969123727532
C         1.08575350750640    1.44112339866651   14.34925177065678
H         0.24806876014875    0.76550596178792   14.43161315013784
C         2.38611688005990    0.95687887978548   14.37067761538496
H         2.58269327990632   -0.09824558441153   14.47241525567479
C         3.44383017835380    1.84217935825880   14.23806470729575
H         4.47467476206130    1.51047554705424   14.20407222725385
Cl        5.86060022441626    3.23384675422395   12.50581518845976
N         3.23613636774748    3.14902708677496   14.11810272091909
O         5.34029438909629    6.36476970737976   12.94659739189659
O         1.23548105990961    5.68501925096457   13.10327580013293
P         5.07317804807558    7.26425264299146   14.11006009345976

