98
CSD_code = MABMAG | q = 0 | S = 0 | Stoichiometry = C45H44ClIrN4OS2 | MND = 6
O        15.16174757560448   -0.77583439253224   19.75986520666525
Cl       12.47978369855018    3.96162418563843   14.32598460362023
Ir       10.47112265697952    5.40182249706617   14.86185189636602
S         6.61280756520838    3.41734982637663   16.01818136997075
S        13.15140667483993    8.28658740446814   12.73695019359454
N         9.01789389398901    3.99553924772463   15.26370872499150
N        11.80419797047045    6.87977925782680   14.43339734424792
N        10.92833003769184    5.00424910817904   17.01510772468156
N        11.82845463603560    4.03138087782387   17.15512601734565
H        12.35052195191988    3.76754560775293   16.30066003795858
C        10.32691235673579    5.14938328175646   18.19592801263865
C        10.85961715863438    4.22772470045621   19.10165139306307
H        10.58590665284189    4.11540471480974   20.13049509066281
C        11.82335745272216    3.51474915313952   18.39459415203900
C         9.27209812955629    6.16815747895181   18.44203396495211
H         9.32454637431363    6.95315547929723   17.69158173432182
H         9.38808871500125    6.59914489897691   19.43472965830308
H         8.28296522562077    5.71318467484771   18.38475678462431
C        12.69029959458593    2.42049747658982   18.78640992865446
C        13.83503607174948    2.11170273882276   18.04507228942325
H        14.10675037071548    2.71526496839534   17.19244353163305
C        14.63195589612029    1.04836629246977   18.40010615022143
H        15.51425823878028    0.80167710498258   17.83160324947241
C        14.31393219609155    0.25620222292842   19.50618496791745
C        13.18351987089304    0.56533357453949   20.25616161644059
H        12.90923391282393   -0.02275714868625   21.11772337501272
C        12.38684152305393    1.63613267994125   19.89511995896394
H        11.50380544637074    1.85450516338999   20.47627007330606
C        14.89087219091481   -1.61902403911239   20.85250678593584
H        15.68339915948147   -2.36564304844091   20.85247917006239
H        13.92306404324920   -2.11932341506106   20.74355541154118
H        14.91247685655981   -1.07034829423879   21.79978114324528
C         8.88183509714338    6.62772766444264   15.09146428066440
C         8.80976478916731    8.01452163304735   15.00593781665968
H         9.70100851924680    8.59244281373049   14.80308725839203
C         7.60959536219369    8.68424958188343   15.18118659412519
H         7.58539434402950    9.76246168081155   15.10907106414719
C         6.43555274856233    7.99003430531762   15.44524886308261
H         5.50708840354624    8.52563303669048   15.57518843745100
C         6.46437183686557    6.61567687333297   15.54075011618512
H         5.56578143980834    6.05141526964674   15.74884234826544
C         7.67515134996086    5.94718121122227   15.36437975996371
C         7.83728604152869    4.53031269362280   15.48706397174533
C         9.03477023128898    2.64730171619923   15.52154353467430
C        10.12769426364783    1.79011431636584   15.41033003234510
H        11.05216176194487    2.19963150995005   15.04119505254072
C        10.00310704347270    0.45799645409269   15.75985234520094
C         8.75777859547479   -0.01238973661416   16.19996224765993
H         8.64306683998428   -1.04959132212160   16.47370647368715
C         7.65416593814545    0.80826735496090   16.29593342907213
H         6.70149406882090    0.42773335761461   16.62978721219538
C        13.56332040678500    8.39980802833560   14.42695210151040
C         7.79905939795179    2.14280669289994   15.96153616266636
C        11.17532692825393   -0.50743427237691   15.69049828492599
C        11.44429622070352   -1.05849292975330   17.09864709830348
H        10.59658593420026   -1.62529415930094   17.47513689563468
H        11.64672784942288   -0.24167299468104   17.78848800471082
H        12.31226054364615   -1.71385613311699   17.08117304870020
C        12.45587814094664    0.16188357195815   15.18940628558506
H        13.25440229384454   -0.57549199896862   15.14080224106912
H        12.77182328067424    0.95287846020082   15.86355827065732
H        12.32213655457204    0.57979933399188   14.19558296801764
C        10.82609756564242   -1.65695242205620   14.73482171894076
H         9.95179182202129   -2.20822400385096   15.07079213378235
H        11.66072293962689   -2.35130393365349   14.66849665352027
H        10.62312138695049   -1.26657206219063   13.73999569092793
C        10.15586980907178    5.57195584926878   12.87620691912956
C         9.28555151923172    4.85887399371390   12.06220988043685
H         8.60344826489890    4.14012026155272   12.49475036920943
C         9.27628966156339    5.04737377990825   10.68913573630122
H         8.58879285109499    4.47888085620508   10.07860307985218
C        10.13967248828658    5.95206901608451   10.08451296087733
H        10.12175262075103    6.08412871139189    9.01289132139823
C        11.02398314243974    6.67265464325432   10.85773738660432
H        11.71550545493496    7.37430179775326   10.41207577980048
C        11.02740268452621    6.48160271806028   12.23863941411014
C        11.90937304964075    7.14589384936386   13.14945855884206
C        12.71829328173195    7.56936750492741   15.18417937303039
C        12.86881993487758    7.51754423240501   16.56393586475284
H        12.19721682608629    6.88700218990915   17.11885492369973
C        13.85886113906484    8.25405962574501   17.19323651158359
C        14.68882805100851    9.06579804793098   16.41326187095379
H        15.46670924665293    9.65022646910559   16.87507849710923
C        14.54809905301759    9.15099803642428   15.04085696196091
H        15.19557343273538    9.78571945996923   14.45652781693790
C        13.99812532754717    8.13648612232249   18.70357356457701
C        12.68477602238500    8.58150605681864   19.36231767927196
H        11.85295031428878    7.95959502654323   19.04472659117787
H        12.46101190873031    9.61313191299038   19.09868190587574
H        12.76889523273281    8.51238479854654   20.44476014684577
C        14.28459652206443    6.67047148604077   19.06080055697826
H        13.46447322807804    6.02179424614845   18.76756345641764
H        14.42890210587600    6.56782371288122   20.13414830630063
H        15.18613136117147    6.32799497777997   18.55757714013314
C        15.13308671462305    8.99817085628398   19.26242110648307
H        14.96443056881248   10.05225416150531   19.05433155806388
H        16.09252331184287    8.69964860342122   18.84659718497497
H        15.18313083231362    8.87393112502004   20.34220761754775

