86
CSD_code = MABQEO | q = 0 | S = 0 | Stoichiometry = C42H24F12NO3P3W | MND = 6
W         2.68272494644498    2.66521836136131    5.89633360399486
N         4.73236421097518    5.65164485770178    5.45681941779449
C         4.02120060024127    5.97282822339566    6.66351758894225
H         3.51911524834697    6.93667615410208    6.52549455908296
H         4.75511980195031    6.09419161133348    7.46789519889826
P         2.76564127382206    4.68507028354071    7.23032414908319
C         3.96159621362012    5.65731085829878    4.24398611125933
H         4.65097623595305    5.70149953202205    3.39370463977813
H         3.35897512519388    6.57216289863018    4.22885593822765
P         2.78568330303967    4.19943098579461    4.02524756553906
C         5.73915632256897    4.63199509040095    5.56525677680522
H         6.43331376732339    4.91253436522532    6.36497341358806
H         6.30535487610388    4.61294342195640    4.62751428343806
P         5.09446610839300    2.88714290652405    5.87558025299313
C         3.04390542972991    4.77269920525537    9.03577399640737
C         3.26276929791220    3.60501202183341    9.75167116361648
H         3.24349023167956    2.64673795445430    9.25518659481162
C         3.50911365969203    3.68267239710085   11.11168488831674
F         3.73914521019346    2.55338872656572   11.79563306048314
C         3.53836735958018    4.89012864950954   11.78534717094505
H         3.73863736882209    4.93761945078214   12.84281694019986
C         3.30185486274295    6.03740420764126   11.04630770264986
F         3.31604518715849    7.22464407042450   11.67205349303982
C         3.05674589946905    6.00368226078425    9.68672675281581
H         2.87038620695188    6.92335339716333    9.15221392630564
C         1.17776811136747    5.58312983153804    7.17182635933961
C         0.17659232414179    5.10655121235138    8.01652797497080
H         0.38554532765035    4.32062617517535    8.72841590632018
C        -1.09552129469779    5.63770263602010    7.93151159406088
F        -2.04632886485664    5.18836432504051    8.76007794780822
C        -1.42329594713752    6.62741524526862    7.01758721179097
H        -2.42318016086918    7.02240118288940    6.95145129927936
C        -0.41498413364631    7.07155598014468    6.18555032014697
F        -0.68688222280376    8.02199472462138    5.27272821778105
C         0.87380091392399    6.57039252120775    6.24359753185590
H         1.60537882506038    6.95722880059187    5.55162652084474
C         1.36750427545332    5.07088893098053    3.26779346179441
C         1.56148958459610    5.91644416509004    2.17849742087706
H         2.53881020606648    6.05071111841884    1.73913262219033
C         0.47297935721317    6.58277794259488    1.64857247874801
F         0.66143181886320    7.39845532634345    0.59954286918616
C        -0.80474802125372    6.44260406780741    2.16442611276676
H        -1.63924993419910    6.97900320315597    1.74430791434289
C        -0.96594448172464    5.58868404739038    3.24031208810827
F        -2.18837503824381    5.43392067529611    3.76719436509751
C         0.09709723880612    4.89873055455460    3.79730130765890
H        -0.06178193596911    4.23618294309999    4.63455804583459
C         3.40887530670956    3.37237550369802    2.52209693066160
C         4.74782055904843    3.32169053294153    2.15704040092922
H         5.51218631698462    3.86764076459909    2.68738941043989
C         5.12807067426033    2.53324610841579    1.08500360400632
F         6.43224941857405    2.49406383660309    0.75584353712259
C         4.22556674731942    1.78582315621289    0.35497476735354
H         4.54124822820160    1.17069263019753   -0.47092523863070
C         2.89595602772675    1.84943006324069    0.74279669899607
F         1.99130973665188    1.14408368828380    0.05250549128944
C         2.47694216524962    2.61800890082036    1.81109890776675
H         1.43398363302607    2.62321000373298    2.09455389583088
C         6.25308495061722    1.94711246320990    4.81770614683726
C         7.62514796002493    2.16704554080709    4.90800556965710
H         8.03596955610854    2.86723947162816    5.62015282813604
C         8.47079498173421    1.46127789917716    4.07341910314989
F         9.79277918696605    1.67592976823182    4.16005663093491
C         8.00240450501068    0.54384557150870    3.14758840389670
H         8.67671003859266    0.01121754942505    2.49780784953882
C         6.63565357958112    0.34076540269392    3.08937288286692
F         6.14827848327993   -0.53619775361143    2.20087123319507
C         5.75491064416979    1.02384293508847    3.91033399455671
H         4.69324532880958    0.84083343739296    3.84261238138282
C         5.81560829333655    2.44779991618366    7.49379986000079
C         5.97188750727197    1.08459840319659    7.73955028329046
H         5.76833693322573    0.35929458116998    6.96452558088588
C         6.37905186280322    0.66049781611494    8.98927018388488
F         6.54619197377899   -0.64923492203995    9.21089038627591
C         6.62665519864408    1.54735855494815   10.02584616079979
H         6.92941068221668    1.20235532191969   11.00024732828029
C         6.45159486564581    2.89029336720492    9.75746276378531
F         6.66661053547970    3.78938196899579   10.73520150464089
C         6.05160374837652    3.35645130291289    8.51713769890688
H         5.92290861584437    4.41955359260401    8.38688828033756
C         2.47364524922746    1.10905481234860    4.70495470075250
O         2.23787657720414    0.20496933179491    4.04053324578054
C         2.74141934043060    1.31225919852902    7.32834304709426
O         2.75569306276491    0.44512777906756    8.07820528052960
C         0.72877905767405    2.51696038337076    6.10775754350317
O        -0.38711622811305    2.34804361588372    6.30972196143716

