49
CSD_code = MABQUD | q = 0 | S = 0 | Stoichiometry = C20H24AgClN2O | MND = 2
C         6.83212293644062    1.03765946041237    7.87680237617279
C         5.52039343947074   -0.76596555678132    7.60235020479253
C         4.54804175588761   -1.75297827737972    7.66440367145329
H         3.73238606581006   -1.69725152382338    8.36626557014053
C         4.68082523447312   -2.82376274980159    6.80272869879200
H         3.94491950435071   -3.61287917259275    6.82288937554705
C         5.74438345104378   -2.91399072415690    5.90523153166236
H         5.80613942887890   -3.76787456496692    5.24802911787573
C         6.72072404113512   -1.93937869679310    5.84047160547266
H         7.53984520274174   -2.01739824419007    5.14275904585971
C         6.59912407583261   -0.86222621230876    6.70692478264684
C         8.58775265621455    0.52964896023631    6.17250479696103
H         8.31456072736547    0.97765160895082    5.21292202653105
H         9.07177224170269   -0.43100909050767    5.97002659272760
C         9.53023900404586    1.42547982885467    6.93386780998521
C        10.23824390245409    0.89862515248806    8.02245171839034
C        11.07668931409236    1.72889837065091    8.75332572400144
H        11.61863471146172    1.32261376166411    9.59565428916372
C        11.23499363818255    3.06926521396145    8.42931112822152
C        10.55144064055676    3.56596288640940    7.32811560753344
H        10.68163262598765    4.60327790350383    7.05446190829316
C         9.69587253413156    2.76982265008231    6.57744385895592
C         8.99445304326193    3.36682107363496    5.38858789823239
H         9.21601715762990    4.42841724156466    5.32197734428672
H         7.91431605723634    3.25189848914642    5.46989847008514
H         9.32669138543257    2.89361426441934    4.46397026486156
C        10.12832731292730   -0.55392925658516    8.39250950358334
H        10.72213568608537   -0.76078690888054    9.27882528193214
H        10.49603499128720   -1.18636277106629    7.58327601686390
H         9.09777036597904   -0.83753343470695    8.60068541914553
C        12.07949321171992    3.96763004268306    9.27192826143335
H        12.86670291788202    3.41288563267850    9.77677714686892
H        11.43979806443827    4.42056029903729   10.03009405783330
H        12.52079537552610    4.76555069680605    8.67945028146218
C         4.85806684765247    0.88663674497570    9.34740899773885
H         3.85591492776177    0.47715811123067    9.20887489508770
H         4.82261826120681    1.98089286849405    9.31747577059598
C         5.41049348063977    0.45443403017200   10.70729743805406
H         6.42331256852270    0.88398250312361   10.83529419141298
H         4.76832183198635    0.84480370748541   11.51058758911512
C         6.06562516465616   -1.44695415532358   11.91300706228839
H         6.05951959623713   -2.53157528089343   11.82853882873572
H         5.50995902913765   -1.14463867389272   12.80857614557934
H         7.09858110692164   -1.08937709107043   12.00306159520394
N         5.69971218454933    0.41578478394914    8.28073853976556
N         7.37503410901681    0.25424528837142    6.91984956952815
O         5.45977792181723   -0.95110534768904   10.74659048766090
Ag        7.79435936409399    2.62317739361672    8.99234918083883
Cl        8.58303090414662    4.10997876481774   10.51252832062225

