61
CSD_code = MABREN | q = 1 | S = 0 | Stoichiometry = C33H26MoP(1+) | MND = 10
Mo       -1.61863808756200    9.37513605250103   10.22215877106243
P        -0.24898554357936    8.87315012160647   12.14923715501954
C        -2.76255149808772    7.65305977483382   11.36957955124729
C        -3.45261595306600    8.87408787831450   11.50093293081944
H        -3.75685478247402    9.13815821524511   12.51230173516862
C        -3.83293557634234    9.77588771417888   10.47140359463216
H        -4.41203104306901   10.63766849856663   10.79353439361741
C        -3.74424841150516    9.58478724342213    9.06660297016597
H        -4.23387870739652   10.34054720574966    8.46070088794299
C        -2.98871236150135    8.65555108584601    8.37523373044676
H        -2.95893209454104    8.77341842729339    7.29614466039044
C        -2.14885674855076    7.63396851118354    8.90310050162260
H        -1.60244946196966    7.04641202326258    8.17018695338237
C        -2.14237297092287    7.12362033399736   10.22940635320634
H        -1.55635325647571    6.22024599009624   10.38629852574536
C        -2.28026789936590    7.08159213720976   12.65422491350109
C        -1.06425240180788    7.57826310047960   13.13439340982267
C        -0.53392988863929    7.08423565300915   14.32117130406766
H         0.41015480492222    7.45793795217550   14.68789951687530
C        -1.21679625828299    6.10686297669445   15.02303458671487
H        -0.80490661284076    5.72228708620959   15.94304953125820
C        -2.42502729073052    5.62011230325077   14.54881454188247
H        -2.95345230526099    4.85849090621398   15.10052021086753
C        -2.95816981199221    6.10355012794242   13.36490203653272
H        -3.89620436702062    5.72197537550363   12.98929286269566
C        -0.04031411236863   10.24394134446641   13.31463264523276
C         0.90207765858010   10.21963557874398   14.34042100507777
H         1.58936418893069    9.38982597097499   14.42753422949115
C         0.97588998073757   11.27540281604892   15.23062092707416
H         1.70830476750915   11.25725663501450   16.02312562124915
C         0.11639059490239   12.35554783985644   15.10488941985021
H         0.17869443371023   13.17661814602935   15.80202403680039
C        -0.81663541305188   12.38757497812937   14.08026162286610
H        -1.47837183489660   13.23402652883721   13.97804203890663
C        -0.89658205308449   11.33481567715142   13.18707383732899
H        -1.61771261852867   11.35185896875383   12.36880587568515
C         1.41549859528596    8.22282235720798   11.87483116377032
C         2.50124953793234    9.08993993163884   11.76481905451335
H         2.36058477174435   10.15156543568875   11.92147017754503
C         3.75783213481496    8.58722086250318   11.48246673285897
H         4.59974635625096    9.25845792861737   11.40730669242618
C         3.93771913636963    7.22496335562291   11.29867623025873
H         4.92022047259452    6.83632951184496   11.08019026321099
C         2.85867125494520    6.36109983791148   11.39779849516206
H         3.00001549862730    5.30041676882929   11.25657609791106
C         1.59864006805499    6.85577585506967   11.67993959136302
H         0.75590901662937    6.18239969447010   11.76594219754695
C        -0.04733121212461   10.70176280926143    9.89608857374600
C        -0.96534142170753   10.94575240660795    9.00994286403063
C        -1.29124190018402   11.72573218551884    7.85094071209545
C        -2.40570744296546   12.56613277211835    7.84578529608213
H        -3.00708595498990   12.65312875278783    8.74111312917494
C        -2.70773622130252   13.31125800994665    6.72185559470581
H        -3.56217438131613   13.97080829012321    6.73013652450379
C        -1.92139094653558   13.20895014045646    5.58546263479305
H        -2.16565268316457   13.78432350420148    4.70628004111334
C        -0.81799575092852   12.36986561402041    5.58123194366050
H        -0.20238183618506   12.29140816490126    4.69829016229144
C        -0.49463212750063   11.63680390269569    6.70655400345693
H         0.36311702534278   10.97943076289174    6.71101350677321
H         0.90843094592104   11.12533996628599   10.18073142876226

