107
CSD_code = MABRAL | q = 0 | S = 0 | Stoichiometry = C37H60NO5P3W | MND = 6
W         5.74154036544384   10.82730099250355    5.04000112121574
N         4.17167206312671   12.22280221944446    8.12735718521864
C         3.32820149144535   11.05951865042575    7.89725085178998
H         2.30798317914735   11.41788701299531    7.74280186651337
H         3.33321492608232   10.38915198242899    8.77776845796885
P         3.81121532067000   10.08760858655887    6.38372245090972
C         5.53230072134017   11.85173363966755    8.51231134515067
H         5.57673401877081   10.82565976232383    8.90268519100969
H         5.91298432040403   12.52028867883764    9.29201945764578
P         6.60232951998958   12.01487168300469    7.00506355011475
C         3.55537298927376   13.11845440328844    9.08863361770531
H         4.26811092974963   13.90153675212136    9.35610320493475
H         3.25883043352351   12.59137296416443   10.01427833037495
P         2.03334817893381   13.95982222624690    8.42076336712552
O         0.90355916614393   13.04138199407512    8.20346563611162
C         3.76463748162977    8.36263305208182    7.06591660017261
H         2.81222966171756    8.23652263623502    7.59433123415481
C         4.93290278744532    8.05018597318674    8.01778992399136
H         4.60767661045419    8.07450833949497    9.05888883142890
H         5.72347520360600    8.79329958518894    7.89515099937666
C         5.45445809571820    6.65606331108073    7.63086710219996
H         6.40661723153535    6.74374319633570    7.10838653518955
H         5.60797435110408    6.02187435412674    8.50319712479190
C         4.40238336875160    6.08423537224576    6.68177136837962
H         4.81746876216413    5.34092261183241    6.00340724799980
H         3.59249226583962    5.62083959344183    7.24921974248350
C         3.88003695472363    7.31730890441951    5.95314368389468
H         2.93336409261383    7.13204482237543    5.44817578459914
H         4.61098030929327    7.65038395839693    5.20981845029274
C         2.23275387139377   10.04175224040952    5.41250762953027
H         2.46647700920263    9.40930808878897    4.54718862190760
C         0.98476909572112    9.48347415708816    6.11112218270028
H         0.93341967757861    9.81635839511672    7.14927375111280
H         0.94374083023471    8.39518280600768    6.08833498695516
C        -0.15833319765973   10.11976777001372    5.32682181285668
H        -1.11082390239347   10.05558342199034    5.85093679916626
H        -0.26011731103091    9.62937521252385    4.35680968194599
C         0.31410633353775   11.55924197815001    5.14683755471533
H        -0.18948985848624   12.06023285591420    4.32135420125088
H         0.11974083974298   12.12083890364968    6.06036577895355
C         1.82804803954055   11.44492287787501    4.91920099582989
H         2.35271059322707   12.21502806374502    5.48592098757289
H         2.08451607988709   11.56839057143708    3.86677994488924
C         6.56867940670663   13.86587396797406    6.86190284228863
H         5.49342076439043   14.06238128833519    6.77842819402561
C         7.27854338654974   14.37845782314968    5.58863195704741
H         6.54581660463758   14.75027670614654    4.87248864269222
H         7.84199971763779   13.58665196540839    5.09513582400868
C         8.19418536448970   15.51998800079918    6.04309428433203
H         9.19904634581470   15.14630424476092    6.24642429744379
H         8.27322222476139   16.30558306292705    5.29357210500276
C         7.55976736103607   16.00933095057009    7.34050058680654
H         6.68542122349903   16.62446696017853    7.12173093954618
H         8.24740523234845   16.59184785904274    7.95311180705185
C         7.13227382187367   14.70981464875415    8.01691319884988
H         6.39952416562654   14.87968980915486    8.80570674480446
H         8.01087913556333   14.24129796251890    8.46077677597749
C         8.25886953087133   11.62649906376283    7.74594041636932
H         8.40519003257024   12.25513184695477    8.63220143739383
C         9.40622686786289   11.84698275290745    6.75735108242265
H         9.71768017877588   12.88861433764492    6.70018843336893
H         9.09878444459538   11.51301269914082    5.76246851713493
C        10.50475415689872   10.93056642876118    7.28337682607621
H        11.28696208017445   10.74934814292852    6.54835981851653
H        10.96085884317249   11.36863736304961    8.17397085307952
C         9.74131467420864    9.65937439203083    7.64838318425494
H        10.26430319059906    9.06208116840588    8.39393178163105
H         9.60897264153887    9.04721245433302    6.75635140706128
C         8.37415491014672   10.14593891950770    8.15524530210037
H         8.28667022217858   10.03420542142447    9.23659168236574
H         7.57789558578488    9.56072635797695    7.69273922729879
C         2.61259969040454   14.77568133075669    6.86746749014387
H         3.15657925822257   13.97538296362269    6.35503755831914
C         1.40325796301814   15.24382836862892    6.03853329558994
H         1.25700053657373   14.62324892405393    5.15602086777075
H         0.49508060821432   15.17552611858696    6.64124005207881
C         1.69927483497627   16.69823713306129    5.66635286473161
H         2.24488338142841   16.73464876562914    4.72240400233903
H         0.79185304561677   17.29098453440216    5.56052502567802
C         2.59984335515147   17.19643502848370    6.79270966305139
H         2.00517708607174   17.42072825741479    7.67923632783762
H         3.15710222319134   18.09181466928215    6.51880225572324
C         3.51248924246485   16.00176151786638    7.05131291898001
H         3.98366760910541   16.03645701309740    8.03386432992348
H         4.30035463899563   15.98670086109244    6.29633089134696
C         1.63700991173495   15.22230890645445    9.71532263349440
H         2.38465689120339   16.01685887586387    9.74529618772482
C         1.51089772115697   14.54208264213388   11.08216418419242
H         1.10586356156541   13.53816191440735   10.93199549676322
H         2.47017944284242   14.45384025687782   11.59245762266652
C         0.50997110051786   15.39560925573926   11.88170958449373
H        -0.25102584461664   14.76304227226874   12.33645790933255
H         1.01095206911958   15.93797696644512   12.68326024538023
C        -0.11754941134389   16.37006234278786   10.87241663185643
H         0.32441950905271   17.36209829061890   10.98246882768795
H        -1.19363497772987   16.46506000298272   11.00674640095558
C         0.24115637130761   15.80010898726848    9.50208507287129
H         0.19686645753862   16.55285154294547    8.71635923378017
H        -0.43438370058078   14.98237124991161    9.24174499443728
C         4.98671500129495    9.91486093960003    3.46492823999894
O         4.58119405600675    9.40052438859622    2.52120387625687
C         4.80392487107808   12.49322719415514    4.50844109869888
O         4.37398135433313   13.46845375575523    4.08166500515309
C         7.22393183529373   11.38060035947037    3.86814868599191
O         8.04996713878967   11.64682966953670    3.11354369576234
C         6.81509190031007    9.18353221360050    5.34476885344673
O         7.49411625221864    8.25719128681090    5.32861461442393

