80
CSD_code = MABRIR | q = 0 | S = 0 | Stoichiometry = C37H40MoP2 | MND = 10
Mo        2.86121932156902    2.23540737775545    6.85252420194811
H         1.44164194191167    1.63322355652422    6.53411269403344
P         1.80098243688177    3.27427179926915    8.71660569828100
P         2.24812222182535    3.82091333861063    5.18592706470861
C         4.32879645922413    1.90856346579815    8.52934223364917
C         4.99867272108166    2.78588515537978    7.65321639120891
H         5.43017615256401    3.67678033290874    8.10210187319422
C         5.10059713371380    2.66445847711310    6.27046011429587
H         5.62268996218532    3.47350054633773    5.76592759656693
C         4.63329904851635    1.63219499394260    5.42328048474460
H         4.83332765959166    1.78142430304421    4.36274710689335
C         3.93928443940147    0.46897290034464    5.75574054694605
H         3.67845399304949   -0.18976111324405    4.93140290942763
C         3.54660617673901    0.02784966973791    7.04461904016859
H         3.01380006384873   -0.91979610229002    7.06980313604581
C         3.78065876804918    0.62534624962850    8.28429025032282
H         3.40047754802611    0.10145601577446    9.15922406569898
C         4.11367553190569    2.40011256094580    9.91005440680629
C         2.89738199297956    3.03681295992782   10.16891709699786
C         2.61775748972033    3.45075778811202   11.46700901303819
H         1.67217384561046    3.91800910996360   11.69725332382079
C         3.54163882654294    3.25680842351470   12.47866271358510
H         3.31443048216846    3.58325244507275   13.48345872609253
C         4.75541771445582    2.64632198473619   12.20890350369593
H         5.47673270780739    2.50082791669427   12.99971635396628
C         5.03846025099194    2.21046181904241   10.92635699162736
H         5.97646499583060    1.71654360327258   10.71079690283670
C         1.52174793234624    5.12948183850234    8.75954882122796
H         1.21345198367325    5.34185561695324    7.72690402927209
C         0.46117283440580    5.70115136968923    9.69529533405619
H         0.72643326420015    5.55843434055812   10.73965027147822
H        -0.51669250212808    5.26455566762688    9.51461405310401
H         0.38443358837519    6.77409071934525    9.51862574886024
C         2.86939689960622    5.80236169289074    9.01380897922649
H         2.83949388867747    6.84921069556377    8.71313764300505
H         3.65381484864369    5.29615571143327    8.45059885190559
H         3.13024670921019    5.75725250876272   10.07004349949687
C         0.23927237698314    2.54921701437596    9.41543719795401
H        -0.00959092543666    3.10154320270611   10.33021714696515
C        -0.89738157518829    2.65671865225778    8.41079536514158
H        -0.63935869497757    2.07483256135261    7.52930182475991
H        -1.06197544770113    3.68701085674522    8.10365061371459
H        -1.81941238408519    2.26327360755504    8.83703486344436
C         0.49809581412086    1.08747517147336    9.75897616106751
H        -0.41501047445345    0.61614774245858   10.11952413378120
H         1.26222882472729    0.99240082461613   10.52990469761992
H         0.83002772460049    0.56521211159117    8.86210437864633
C         1.64360214657472    3.11486333070787    3.61574381084664
C         1.35417271491372    3.96255317770861    2.54685353791459
H         1.49094768516351    5.03034541483496    2.65826386834813
C         0.90003524132328    3.44239832640870    1.35067816686286
H         0.68255141080225    4.10351173677913    0.52392977333671
C         0.72103657343294    2.07431086849666    1.21072047034225
H         0.36605499972268    1.66989836378511    0.27383051829837
C         0.99080002640052    1.23116687316365    2.27460592698674
H         0.84116814796049    0.16602301669137    2.17038942939365
C         1.45009454007641    1.74963590368757    3.47415773488734
H         1.64749165710738    1.10906503817295    4.32193878390934
C         0.90566621993670    5.06211475308171    5.32370039536500
C         1.01845993901403    6.43979159145221    5.18268299599772
H         1.97495173858848    6.89567533193822    4.97091924316032
C        -0.10556033294478    7.24080375725182    5.30655560332485
H        -0.01057527745985    8.31241111328364    5.20143317765375
C        -1.34495166695366    6.67816682509791    5.55575134474164
H        -2.21584344168465    7.31015769791918    5.65144724873949
C        -1.46715991507020    5.30131284474546    5.67026253182110
H        -2.43607424761828    4.85687431450422    5.84704627294015
C        -0.34855463209699    4.50060455068630    5.55341287651532
H        -0.41213025291061    3.42392019775779    5.63843749528881
C         3.64007347902665    4.83176865516288    4.58407349864213
C         4.13603397297144    5.81824992124397    5.43443486216311
H         3.62718088657681    6.00130380205736    6.37064130217656
C         5.26415365054630    6.54080319254445    5.09650373563622
H         5.63407440453994    7.30884557830614    5.76138470749123
C         5.92732005338555    6.27218051863988    3.90895665108491
H         6.81305655094517    6.83115585238352    3.64417816141019
C         5.45722281408048    5.27627194948680    3.06951633348275
H         5.98005790115916    5.05500410831166    2.14965030385225
C         4.32271199602065    4.55665204618205    3.40333930884525
H         3.96689644339393    3.77777786455934    2.74263187312820

