72
CSD_code = MABSIT | q = 0 | S = 0 | Stoichiometry = C34H32N2P2RuS | MND = 8
Ru       12.30314521646614   11.04632941590138    6.50751038477114
P        11.62937303630554    9.14047968818716    7.47334259274485
S        10.48343691903177   12.49677563259648    7.26955633614748
C        13.06816994967210   15.28114043144005    7.03786511386059
H        14.08534109973657   15.58864287730952    6.89660527776517
C        12.42482464045665    7.62948159054918    6.83470899311027
P        13.09655024765459   11.52736998039910    8.60250797511143
N        12.73179916804018   13.96189090463647    7.00376723471126
N        10.91683920700524   15.16318012494389    7.36962281316492
H         9.95034532009757   15.37744653777492    7.54569859696386
C        11.75778732248697    6.77278487400193    5.96387765310662
H        10.71748770307632    6.95185219591145    5.72828771929096
C        12.41896898106447    5.69451857676413    5.40342307978581
H        11.89156198320523    5.03191873956814    4.73227584170606
C        13.75317013060293    5.46612200212330    5.69571456660401
H        14.26705326809650    4.62351457970195    5.25689368073686
C        14.42995144688697    6.32849304696205    6.54356916835619
H        15.47462463116576    6.16142452999560    6.76413515069147
C        13.77327743548389    7.40836998256363    7.10264021355092
H        14.31121607408825    8.09525663810939    7.74252006613689
C         9.87433942356192    8.64396753162997    7.47289484839608
C         8.94569359032170    9.44676585497767    6.82476795135544
H         9.28206261767382   10.36030280984200    6.35157404673891
C         7.60929389551284    9.08642879451024    6.80420752762954
H         6.88901142189628    9.71627050457049    6.30331406994299
C         7.19809179827835    7.92023458021971    7.42633726156714
H         6.15569169498450    7.63677288881899    7.41149330833244
C         8.12373671597349    7.11034239580516    8.06803178344525
H         7.80135233218975    6.19723421552507    8.54790348307859
C         9.45805310173725    7.46679978202567    8.09195863454998
H        10.18533189029207    6.82756576426795    8.57586680872862
C        13.17829651535699   13.09325569435481    9.53824709338843
C        12.06478670447459   13.61968656795203   10.18393487036795
H        11.11883535798644   13.09887238813154   10.14430373865999
C        12.15672347025439   14.82745149766009   10.85256798541142
H        11.28593037342433   15.23125814800077   11.34970647401246
C        13.35525199827017   15.51963616388792   10.88439937957804
H        13.42269943274115   16.46241714582250   11.40756224649628
C        14.46442557458655   15.00484077296535   10.23318247352645
H        15.39861356641712   15.54784360487677   10.24567344356632
C        14.37573766840583   13.80249865516465    9.55899508228582
H        15.23230932025100   13.40852103244547    9.02962759423976
C        14.73226690534943   10.85277886059901    9.06342304478984
C        15.55817443601254   10.34657415404633    8.06977056407949
H        15.21580507462340   10.39119068443082    7.04458731035740
C        16.79114194745686    9.80231981393420    8.38664254209935
H        17.42758022934054    9.41183274517117    7.60524084086137
C        17.20628171967121    9.76010607493689    9.70646170536292
H        18.16587403692298    9.33355096762791    9.95981079723907
C        16.39198700215314   10.27483247332250   10.70410756730572
H        16.72041898049661   10.25062451245558   11.73330081266409
C        15.16358307358874   10.82318439785750   10.38724003018713
H        14.54241539457922   11.24296652648495   11.16657996178396
C        11.43237152841897   13.92005364113827    7.20407049031493
C        11.96624303753783   16.04453852108545    7.26540488842884
H        11.83269509809011   17.10262086430925    7.35474595277143
C        12.02893739787649    9.08968040972738    9.28739298482980
H        11.29072991494083    8.48820517607997    9.82562408246971
H        13.02122760963664    8.65067654057339    9.42720159099594
C        12.02042888142937   10.53616147583124    9.75698798369402
H        12.35294755020864   10.63816125621087   10.79380672853782
H        11.00398463579965   10.93777449731251    9.65592148138878
C        12.37521908709501   10.05931545464693    4.49684108457402
H        11.95100829960627    9.09680400500160    4.23850230818264
C        11.75007624717920   11.31222188130236    4.34257581248338
H        10.76148510565863   11.48282611542837    3.93409870266106
C        12.72279569972853   12.32172796186257    4.60237469971881
H        12.58694036773086   13.38143832119020    4.44099564411449
C        13.92803956891062   11.69132898001315    4.94510471934240
H        14.86780946199277   12.19250107551864    5.12856699421064
C        13.71966842590148   10.28413615719626    4.91637392608951
H        14.48787103685429    9.52060731182214    4.94967218482566

