47
CSD_code = MABTOA | q = 0 | S = 0 | Stoichiometry = C20H22N2O2Pd | MND = 4
Pd       19.37871215974830    7.59641744657770   23.91415342777210
O        18.32555358017717    7.58786294724417   22.20504681659047
O        20.79547261191371    8.72621468863662   23.03470402763819
N        18.08294847050548    6.44854960879958   24.82173129108670
N        20.30433392286350    7.62922369021008   25.61902940601257
C        16.38728513594485    6.45114515350154   23.09313721881690
C        17.11109790799808    7.18992462190478   22.09919749174171
C        16.43236126622290    7.48138494288784   20.86907542127977
C        15.14481368401295    7.06788311805049   20.66494314776848
H        14.65318766451985    7.30471038753305   19.73147949561866
C        14.44751159132906    6.33979494430210   21.63889074342082
H        13.43349133109245    6.02247050334584   21.44949843127839
C        15.06348313339854    6.03888720323056   22.81887794681807
H        14.53497687112709    5.47712449434125   23.57737317938900
C        16.94390515960217    6.06808032063957   24.34311282415803
H        16.32487404403768    5.38615899486915   24.92698091603708
C        18.66888761395021    5.86367909147042   26.02877553631891
C        19.54612793289855    6.96957009467268   26.66085231585957
H        18.88967212259180    7.70691574294881   27.14452874577118
H        20.20814811124326    6.54303878281005   27.42660849349722
C        21.45969932157477    8.15201371048268   25.86611074460797
H        21.86221439081291    8.05686880429626   26.87917704864647
C        22.27580579893705    8.85798398958301   24.94281111451077
C        21.89110525426389    9.10693231501766   23.58322035121797
C        22.80646096339985    9.84932221774642   22.76538024662743
C        23.99859654037082   10.28996040202028   23.27112163232253
H        24.67183296331299   10.84600246076554   22.63337078329093
C        24.36806887789920   10.03757527044553   24.59926424309893
H        25.31509104888560   10.39691914564237   24.97172505750995
C        23.51995685284547    9.33909427782069   25.40886323533578
H        23.79193149836013    9.14067374719964   26.43673650587506
C        19.57175977709143    4.70817211840651   25.56200448464766
H        18.97086178674318    3.93136733643284   25.09345077725146
H        20.11037274914534    4.27796510021388   26.40325865284856
H        20.29165607412225    5.08394295381365   24.82270789012813
C        17.65147991142726    5.36990573799288   27.06137297943966
H        16.89922150071564    6.13256688155392   27.25154500234007
H        18.16477276476271    5.15088473753042   27.99432659296751
H        17.15943864352809    4.45911786878430   26.73076766460112
C        17.20172397456250    8.25278469640607   19.84287276115210
H        16.58048028232353    8.49395473111078   18.98431748665238
H        18.06348030400174    7.67291726113968   19.51362106770124
H        17.58817006279020    9.16986656805079   20.28561053555438
C        22.38833470040843   10.11016717052720   21.35202921033944
H        23.16410764306945   10.63788242551855   20.80328741434753
H        21.47217843901237   10.69967380569204   21.34098902788022
H        22.16425356045406    9.16794748782715   20.85356061223255

