91
CSD_code = MABTUF | q = 0 | S = 0 | Stoichiometry = C28H48B2CdN8S4 | MND = 4
Cd        4.34361907172628    4.44656189965918    2.72209056394415
S         1.93157012923420    3.41825674369254    2.77634911258852
S         4.35117738387988    4.74183344610532    0.12031230995028
S         5.82736854258461    6.26800537140101    3.89620579781288
S         6.17097125366183    2.58224400615996    2.88866387099352
N         0.53702743811432    3.58288318755155    0.44547984424107
N         1.48352294316316    5.47356910201759    1.05778567550339
N         3.32942974912750    7.14506913297401    0.81010280772748
N         5.07641233395958    7.29098018371237   -0.52564376638992
N         8.10569443335135    5.36173381583739    5.07703636446880
N         6.31410180465712    4.17870862608496    5.56266887111543
N         4.92093389027048    2.12779243922146    5.23939502531499
N         5.14458792995593    0.31529696907703    4.00558794357897
B         2.22747733725823    6.62452886495889    1.77568709959800
H         2.75242069497808    6.23659389101790    2.78798298628302
H         1.45672138834490    7.50866213719634    1.96730528626984
B         4.88970169262285    3.60016665689336    5.73574246009849
H         4.62345780692972    3.59507263796692    6.89391006145894
H         4.08949635756976    4.21388550842417    5.07703609695944
C         1.31395009620874    4.18407511732559    1.38908344977393
C         0.82616500584612    5.68519225529869   -0.11858473943846
H         0.82638475698914    6.64689517863822   -0.58869456178350
C         0.24074947153089    4.53049184700165   -0.50273817807319
H        -0.35151233274713    4.32930094610081   -1.36779709387910
C         0.09291090430475    2.18648514137556    0.42922218445992
C        -0.75697555741708    1.91755171624315   -0.81417526550189
H        -0.18645676072653    2.08136655700906   -1.72536619893762
H        -1.64937217989093    2.53915146467156   -0.82602284137139
H        -1.07342635711495    0.87769123975079   -0.79839201631198
C        -0.75801613415039    1.92277251777089    1.67504825363947
H        -1.62059811515010    2.58580105855381    1.68827097354740
H        -0.17462704970750    2.09288872231154    2.57483437117054
H        -1.10736204570188    0.89407500577739    1.67277961884495
C         1.32308990099765    1.27680742480671    0.39450297122406
H         1.93283944536225    1.49851206422470   -0.47875836001841
H         1.01375646156976    0.23600756305723    0.35561816267446
H         1.92501134658113    1.43471548021228    1.28422316534727
C         4.26433291979869    6.43937137297896    0.15712889592204
C         3.56002165855378    8.46290849256162    0.55213280686085
H         2.94489718234701    9.22764401480814    0.97799917110773
C         6.76621788825842    5.23200876093601    4.86445863420072
C         7.38135152730951    3.62256329157736    6.20498218057348
H         7.26676499215255    2.75566911301006    6.82244838312649
C         8.48631392853256    4.34224629031490    5.91415582402314
H         9.49173171594239    4.19704415730186    6.24221320673833
C         8.99118274984801    6.38838284655993    4.52084274025455
C         8.96018545887268    6.29260331887922    2.99380938546714
H         7.95145962503614    6.46999112649776    2.63324074489891
H         9.27361144739947    5.30218335560544    2.67073620751959
H         9.62678046400824    7.03387086431154    2.56185726000489
C         8.51872294749360    7.76389123369003    5.00074645856046
H         7.50969363811667    7.96079481455184    4.65159044387565
H         9.17991896448023    8.53593318969065    4.61724911474550
H         8.52560278723222    7.80538292808763    6.08795385056025
C        10.42608757320290    6.16452153605959    5.00224607204356
H        10.80615287717280    5.19947163700252    4.67542991869228
H        10.49629241095398    6.23622157810941    6.08524118285277
H        11.05927983923455    6.93723187705863    4.57365563350116
C         5.36676031874751    1.65627267709971    4.06566916756785
C         4.39490287800372    1.07609998820323    5.92753599757240
H         3.96204570717340    1.20808846360198    6.89694862144173
C         4.63110585376413    8.56417155547984   -0.26787977586191
H         5.08973877537602    9.43813264383692   -0.67503205093739
C         6.23261614827994    6.92365675518611   -1.34966514368056
C         6.90475080532638    8.18286001187512   -1.90028722752488
H         6.22967118089488    8.74511302211916   -2.54145252446303
H         7.76312123254906    7.88421080689943   -2.49659153655625
H         7.26026081999362    8.82310476447755   -1.09632439398185
C         7.24251331014856    6.16998086849654   -0.48009685659722
H         6.80638745971491    5.25986901198477   -0.07543585352145
H         7.56430582723418    6.79984683146872    0.34607353471477
H         8.11115874452772    5.89907522582772   -1.07344837918003
C         5.75489225699242    6.06253415693940   -2.52226907984991
H         5.29522919149570    5.14853952872896   -2.15847068214778
H         6.59872310428513    5.80123610223008   -3.15447657968780
H         5.02598874567295    6.60818432765391   -3.11832612818558
C         4.52688174549106   -0.04262705604269    5.17869687417831
H         4.23137230713079   -1.04382176769195    5.40269964979830
C         5.45302772512406   -0.57232338879652    2.87955125857339
C         6.96506395384468   -0.57048308193662    2.63816142233890
H         7.30683995074585    0.42679258624997    2.37855783275232
H         7.20723723427044   -1.24576644355023    1.82242442940512
H         7.49029683929641   -0.89901923712122    3.53278557006335
C         4.69118302816636   -0.08402917086162    1.64457822052348
H         3.62102461294081   -0.10039338134640    1.83804843301762
H         4.90444846622055   -0.73087490601337    0.79838691495827
H         4.98302606704951    0.93030633707636    1.38298716091896
C         5.00553618829565   -1.99984527511864    3.19984846398597
H         3.93282489683257   -2.04813625676282    3.37184801016462
H         5.53098056663051   -2.39456070493169    4.06652022434330
H         5.23787842347511   -2.63445671480861    2.34846400368143

