83
CSD_code = MABVAP | q = 0 | S = 0 | Stoichiometry = C30H36N6NiO10 | MND = 6
C         6.47504688775201    4.15531968961974    0.63223377049331
H         5.74728969315908    3.36745676348330    0.83598608709015
H         6.05461590607311    4.81420971032430   -0.13933567741261
C         8.61957318057327    4.43280038183111   -0.53361619738270
H         8.06346396827375    5.21318606822435   -1.06707904949193
H         9.15926222739502    3.85609882859345   -1.28667833708694
C         9.63564514070358    5.11175331693898    0.40642881087326
H        10.45382850664996    5.52553846892121   -0.20032748814317
H         9.15439669054896    5.95006958293722    0.91170695553204
C        10.81243080454363    4.97235650822762    2.50489436895739
H        10.19016785899472    5.83843123859885    2.73252992888216
H        11.79081811534197    5.35021277772664    2.17426898096648
C         7.45144825952304    2.29106091118400   -0.55890898380842
H         6.89568471868024    1.61403745495621    0.09663018888594
H         8.40591618992345    1.80272401084993   -0.78228756930423
C         6.68080342061717    2.50302519873530   -1.86223738495906
C         5.56554748519807    1.08893440266040   -3.58436966373112
C         5.17006204949069    2.11302221104573   -4.44381563698243
H         5.40236285187901    3.13538986354727   -4.19873186212207
C         4.48415863326831    1.80717155223556   -5.59998725723588
H         4.17105398666013    2.58761605825533   -6.27635821200380
C         4.18009693632353    0.48560206618853   -5.92210813298396
C         4.57385062896908   -0.53686684034469   -5.06020513506786
H         4.33889907126437   -1.56050742643590   -5.30457768902631
C         5.25941686564029   -0.23583017190451   -3.90422593148750
H         5.56408503861894   -1.02864296716238   -3.23566549777869
C         3.44772104269260    0.21028544134077   -7.17253853268282
C        11.17286912269307    3.30031014217382    0.81022819005991
H        12.17030221963176    3.75513446842465    0.78838154241863
H        10.87742875335685    3.07266756832871   -0.21541742715820
C        11.19410095451572    1.93888524321381    1.55011892808386
N         7.71742969271645    3.52563924201213    0.17936463043681
N        10.17630380117171    4.19902415687243    1.42692458285735
N         6.26900282005767    1.32166576818407   -2.40258690540050
H         6.48810765042163    0.48655748182036   -1.87427856294173
O         6.48167287767036    3.59781280411789   -2.34174197313471
O         3.08108134255340    1.05208636877689   -7.95566079745077
O         3.21402037370047   -1.09771320589613   -7.37978492738419
H         2.73172728217073   -1.21133129259824   -8.21321364745527
O        10.05017827845482    1.56285839072987    1.96552386350020
O        12.22875666590837    1.31362183741811    1.67667084799952
Ni        8.74756371535238    2.87735711750053    2.20844359480275
C        11.02004837132979    4.15531681208878    3.78467600796311
H        11.74780183366494    3.36744946460492    3.58092779713737
H        11.44048078996262    4.81421057486969    4.55624164812544
C         8.87552374008755    4.43281327458099    4.95052477712072
H         9.43163673842140    5.21319822028194    5.48398477451850
H         8.33583146058857    3.85611686879793    5.70358828490760
C         7.85945405004734    5.11177064233211    4.01047866454959
H         7.04126650905141    5.52555138712935    4.61723221358642
H         8.34070172619797    5.95008980410290    3.50520389172115
C         6.68267085423834    4.97236300114345    1.91201205218374
H         7.30492850636056    5.83844030948845    1.68437003672808
H         5.70428286452353    5.35021778652116    2.24263822660356
C        10.04363568135892    2.29106583052805    4.97582138184412
H        10.59939019795201    1.61403864718496    4.32027858233143
H         9.08916458858035    1.80273676303752    5.19920220817451
C        10.81428390189576    2.50302829225126    6.27914684494864
C        11.92954364288478    1.08893578195145    8.00127491271766
C        12.32502945690827    2.11302234478465    8.86072303737100
H        12.09272467919554    3.13538983200854    8.61564159513793
C        13.01093619678240    1.80717158839765   10.01689227119520
H        13.32403511610018    2.58761515500374   10.69326713944080
C        13.31499577829413    0.48560172136637   10.33901469320212
C        12.92124333355871   -0.53686608528321    9.47710875567692
H        13.15619527198668   -1.56050653975828    9.72148173589417
C        12.23567620682987   -0.23582879677926    8.32113108635467
H        11.93100707418205   -1.02864119571679    7.65257029646303
C        14.04735377563060    0.21028297223684   11.58945381697050
C         6.32225239839709    3.30030576265866    3.60666915353050
H         5.32481207650951    3.75511512960303    3.62849076880730
H         6.61767428249331    3.07269229571268    4.63232045429204
C         6.30107130857479    1.93881082790841    2.86690909967028
N         9.77766169979882    3.52564499492444    4.23754744728175
N         7.31880501483880    4.19903848321475    2.98998229600456
N        11.22608664595515    1.32166814972571    6.81949562449338
H        11.00697825177131    0.48656134174269    6.29118600951569
O        11.01341917395554    3.59781476644674    6.75865235968884
O        14.41400672694988    1.05208483729804   12.37257056149805
O        14.28107886941819   -1.09771361183520   11.79668638519982
H        14.76338298273677   -1.21133009798336   12.63010912809997
O         7.44496151097860    1.56286291871143    2.45132350671583
O         5.26637500186938    1.31362855305131    2.74017368011539

