28
CSD_code = MACGOO | q = 1 | S = 0 | Stoichiometry = C8H11AuClN4O3(1+) | MND = 4
Au        9.76463778564445    4.61582500255711    1.56364859781248
Cl        7.53411544680787    4.35488548575387    1.28152951585880
N        10.10039354168163    4.12467342123246   -0.37726171963681
H        10.13507632716697    3.10377106301593   -0.44121328677439
H         9.34938290952829    4.42308587403574   -1.00471610648551
C        11.40160807623595    4.68960323969312   -0.79141240764739
H        11.27457819231178    5.74090815011459   -1.06102422065568
H        11.82771183376892    4.15692104182974   -1.64464712896415
C        12.37139022697280    4.61510275250747    0.39195080764746
O        13.55263114944429    4.40682892366406    0.29130750438318
N        11.73025778678895    4.85840253359748    1.56492961927256
C        12.41674153828603    4.55567860220377    2.79384466940116
H        13.49622033301346    4.60339550170446    2.60538942379065
C        12.02077958771999    5.56803556976235    3.88221626095231
H        12.17535747035419    6.57031107462776    3.47128132710648
H        12.66191987852908    5.46150439114315    4.75816849384996
C        10.59938337391079    5.42434602448928    4.31105502631126
C        10.06300433258291    5.57021973139984    5.55905732729194
H        10.53389701042870    5.80453427929411    6.49158316851692
N         8.72106635408267    5.36538446267956    5.43893562929318
H         8.04825075723710    5.40130780673071    6.19273663459434
C         8.45035188352035    5.09854939207525    4.16672991208134
H         7.48000223451023    4.88653467548228    3.76080637442417
N         9.56841534704812    5.13329296658279    3.45382494932352
C        11.99381451080062    3.14005026478588    3.22039212622386
O        10.93716982768066    2.68312099717379    2.85042003569316
O        12.79257952597729    2.46996253225512    4.01782944043256
H        13.65266275796554    2.88326423960985    4.18803802590197

