25
CSD_code = MACGON | q = 0 | S = 0 | Stoichiometry = C10H9Br2N3Pd | MND = 4
Pd        3.40210064358563    2.45252325685409    9.11494464915396
Br        3.98976881975287    2.77280309433374    6.85612388079208
Br        2.20191010792148    0.49813718041923    8.57585457748186
N         4.56974490040213    4.07478280331838    9.71204514233959
N         3.07203733214613    2.16480305873596   11.15579838913077
N         5.33132464064697    2.74488560338350   11.50502108304393
H         6.11552190409034    2.60050978313478   12.12720864121771
C         4.69161492315334    5.16697523351955    8.95472766808100
H         3.91394900020401    5.32677054167471    8.21774029582254
C         5.75015239284278    6.04458216708166    9.07695067668862
H         5.80814654975274    6.91162814696992    8.44131413948848
C         6.74083728066845    5.76413595968903   10.00970674915206
H         7.60130120424347    6.40656936107619   10.11292352071258
C         6.60268099314697    4.65343615160762   10.81680037910703
H         7.34332997475582    4.41144047581870   11.56365832460581
C         5.48215187221482    3.83147821577766   10.65588488021713
C         4.15948184559890    2.13608919043828   11.92981165637248
C         4.15107030159206    1.50222263536911   13.17694969479468
H         5.05538612752322    1.46153633604998   13.76472276317406
C         2.97860307209627    0.93500063646287   13.63264631817539
H         2.95307813382740    0.43465241205351   14.58803329487583
C         1.83582838987948    1.03196940367107   12.84851767493511
H         0.89549662002042    0.62184511435659   13.17521208295461
C         1.93250080919201    1.64282826558077   11.61436986904318
H         1.07618216074219    1.71069497262259   10.95443364863909

