28
CSD_code = MACGII | q = 1 | S = 0 | Stoichiometry = C8H11AuClN4O3(1+) | MND = 4
Au       19.20343237719537    4.69065603397552   11.97519931605899
Cl       18.53381258973099    4.27409893723601   14.09893673453738
O        18.71266168685156    4.57753864702023    8.00842361583800
O        20.82460290332919    2.89319819543686   11.00171627363236
O        22.44461938019001    3.03808883842825    9.47534698575439
H        22.71537959247574    2.14873620279324    9.76747393948472
N        17.42477745506136    4.03828205365955   11.24337772618656
H        17.47312438713739    3.02063149875093   11.14887470501185
H        16.63706396245257    4.22924963935967   11.86745983598480
N        19.56598588054669    5.03382729177358   10.06214848208945
N        20.94912509335426    5.40381822935407   12.55154616066079
N        22.65049642493166    5.91047514996345   13.80189468443048
H        23.22751875803299    6.04885065334165   14.62039019594836
C        17.21633644996640    4.64796548459431    9.91342897766235
H        16.51225112766936    4.07571567890418    9.30504118563599
H        16.83297869724024    5.66400338823629   10.03354262411222
C        18.56701478917175    4.72795641121783    9.19247438257887
C        20.92931396857483    4.86443299665047    9.63772130832423
H        20.97611720327623    4.90691722346891    8.54364755043057
C        21.82585256762938    5.95344797330504   10.24226075514524
H        22.81855218376940    5.90227477930992    9.79437192798063
H        21.38719062381544    6.92317659374591    9.98980573119461
C        21.95350441110259    5.83960560712566   11.72345472665775
C        23.02248818660370    6.15653995881229   12.51386450876934
H        23.98832008055097    6.53464296429020   12.24885396000203
C        21.40294005556377    5.45531992204574   13.79756662955851
H        20.83437167051058    5.16800615524477   14.66097433161113
C        21.39256749326202    3.48494349195082   10.10720274471739

