53
CSD_code = MACPFE | q = 0 | S = 0 | Stoichiometry = C25H21FeO5P | MND = 6
C        -0.08127820276308    2.32918030353840    1.08707068816862
C         2.36706773458425    1.89927919403891    4.81834980488921
C         3.54192415390154    2.55247921269512    5.18698642585040
C         4.32393950860309    2.04917278285525    6.20928200417197
C         3.94273079484273    0.89412200445389    6.87423908936794
C         2.77436657476112    0.24443700134441    6.51467477905798
C         1.98779497732504    0.74175904921987    5.48981798001393
C         0.93955373223471   -0.10249317586185    2.66220246789906
C         2.61169642506325    3.23150069245429    2.35879147339160
C         3.11828199378303    2.35487119124763    1.40324193067747
C         4.11406295330166    2.76372229970058    0.53668187696654
C         4.60982585494105    4.05555690821227    0.61271678608291
C         4.10999242116019    4.93269538490380    1.56025727556541
C         3.11755226728792    4.52548862685033    2.43487891843448
C        -1.05900421219603    0.15155130428088    1.51744314449914
C         0.68085090984745    4.10410766478618    4.24826307633029
C         0.67604861922178    4.31140016477150    5.62243689057938
C         0.10866900622365    5.46191607898383    6.14421994030590
C        -0.46025119657257    6.40325627446542    5.30357019294862
C        -0.47175311130514    6.19306822677940    3.93254646532196
C         0.08735507936285    5.04463110727740    3.40712831142146
C        -1.92051859752681    2.08453267136993    3.37980217555468
C        -1.32484406647877    1.23515841583157    4.32408420155493
C        -1.78415584396754   -0.13422016584055    4.59209056910392
C        -3.09878766656260   -1.92531791353126    3.84029362647112
Fe       -0.15639912596501    1.27820507580203    2.50553787917880
H         3.84226324536368    3.45381032025533    4.67140515497924
H         5.23434439058344    2.55937274231159    6.48808773515104
H         4.55734313082115    0.50246772854751    7.67113749423504
H         2.46896371659032   -0.65343360727139    7.03017772660425
H         1.07625540109564    0.22706007696145    5.22048604040587
H         2.71243159063540    1.35232772189055    1.34096655632559
H         4.50007296317575    2.07761398524502   -0.20238873467027
H         5.38256610113578    4.37924670255285   -0.06843149082820
H         4.49332756770123    5.94091527129184    1.61985489969097
H         2.73034212601790    5.21949736026971    3.16840115529858
H         1.11714556850348    3.57768091229599    6.28286228464777
H         0.10947355279968    5.62107838291318    7.21244841185135
H        -0.90059942996865    7.29911564180986    5.71522319900888
H        -0.92247094093576    6.92297685790826    3.27632821276071
H         0.07454993160251    4.86475974961413    2.33948818750707
H        -1.90897864368589    3.15110509970222    3.57525393428363
H        -2.81299410357717    1.74506649855783    2.86822471781196
H        -0.82316376222171    1.67492843508631    5.18636462210736
H        -2.25222337413232   -2.61511657227194    3.80279056057690
H        -3.78827522961892   -2.12658554749195    3.02417376302978
H        -3.60000241563417   -2.03763863749256    4.80434973786268
O         0.00084127402914    2.94746091426126    0.12218703030706
O         1.61467369974688   -1.03196672708676    2.63357539807849
O        -1.55310777574850   -0.59824404089824    0.80561921901991
O        -1.43843948587109   -0.79749994107069    5.54473059496775
O        -2.65555727548989   -0.59121973433533    3.66377214605216
P         1.32199719398838    2.57936002583181    3.47850346912445

