95
CSD_code = MACQIR | q = 0 | S = 0 | Stoichiometry = C43H43ClO4OsP2Si | MND = 6
Os        3.42999619159540    4.71215538479593    3.09165284788675
Cl        1.35199586352827    5.63177581258971    2.38243142603454
Si        2.55203526644328    4.60208432211638    5.31597569439390
P         2.46481586347041    2.60022556379616    2.58043623804469
P         4.23330821065287    6.91578800054757    3.44813293589390
O         4.97803426668035    4.65357473721081    0.48289076815371
O         5.98558134234501    3.50711509649495    4.17615990407696
O         2.57313246492217    2.97233525764613    5.70287985521220
O         3.56219125906857    5.44898687661504    6.34598721640672
C         4.23515229753425    4.74451857272290    1.35852832452373
C         5.00850991218361    3.96180354034457    3.77423939828296
C         0.76196841835321    5.19668829154163    5.80690622336577
H         0.81448687597510    5.99173942775401    6.54593044684859
H         0.19136976924119    4.37282914041610    6.22801653945832
H         0.19935828967448    5.57730783539887    4.96140559634371
C         2.17254382051452    2.35544633194101    6.89655282860774
H         1.47555712814554    1.54899355722408    6.63257033920000
H         1.63970443287066    3.06793756827295    7.53468520312424
C         3.36794417842589    1.78593117629871    7.65092653542160
H         3.04395034659878    1.36982139526160    8.60168947561953
H         4.09520022664880    2.57269372493130    7.83312604495881
H         3.84619288609616    1.00319016796661    7.06735184029946
C         3.46705793458067    5.50482025853837    7.74385539908882
H         4.29156239597214    4.91436101852495    8.16532164077561
H         2.52649447561593    5.05825321330660    8.08024619514287
C         3.55304042142273    6.93949266958578    8.24598582909338
H         3.48265928481777    6.95440329143968    9.33095942687792
H         2.74243502244695    7.52892310078651    7.82571440464687
H         4.49453193151058    7.39116011379270    7.94471946792042
C         1.74019241789569    2.36908512900294    0.91308924392345
C         1.71082276695656    3.37208967996681   -0.04482985174126
H         2.10292990176006    4.35159548989174    0.18549103952581
C         1.15837750359733    3.13060615105578   -1.29158803827885
H         1.13645949344285    3.91973093259518   -2.02855398305429
C         0.63443959854457    1.88608622718089   -1.59127827908886
H         0.20422808714234    1.69853956154099   -2.56405323864757
C         0.65895999646229    0.87909848132094   -0.63817691984734
H         0.24990054055076   -0.09401329423680   -0.86768779766836
C         1.20481039772673    1.11792359373723    0.60733168264459
H         1.22402044802193    0.33208439880113    1.35048639025397
C         1.08688020332081    1.87943261879918    3.53288291353963
C        -0.05758392211412    2.66369869905680    3.64581867267185
H        -0.06681375188201    3.65405874686244    3.21287900211098
C        -1.16880423952580    2.18037977494285    4.30932016730717
H        -2.05130904250817    2.79653906400518    4.40009320621066
C        -1.15161640921026    0.90692668703924    4.85559151204414
H        -2.01887626443596    0.52744838259243    5.37626678575623
C        -0.01973653334707    0.11924833665002    4.73158513648050
H        -0.00524968827798   -0.87677714006556    5.15152992911838
C         1.09944507260104    0.59930686705119    4.07212121274978
H         1.97781001833102   -0.02398515401784    3.98243485181187
C         3.76125658525930    1.32250699068365    2.59389292547793
C         4.31226789667458    0.80524195846446    1.42697706394461
H         3.93055506129508    1.11282780332819    0.46343788533327
C         5.35486802373504   -0.10277286673910    1.49934538956812
H         5.77927169108103   -0.50260143979312    0.58981910507918
C         5.85715424400850   -0.49356887887484    2.72882390352321
H         6.67011692591367   -1.20296993689942    2.77931110431440
C         5.32569899258494    0.03749871831159    3.89417767964340
H         5.72886197421312   -0.25407891454016    4.85334859141219
C         4.28950807470132    0.94882031599748    3.82863515329045
H         3.88032147109516    1.39761805626008    4.72241584267858
C         3.53072033513687    8.07503683763689    4.66634221762996
C         2.14467293169776    8.19370177912331    4.68866594569907
H         1.54693778079621    7.55613179156948    4.05348634201239
C         1.54076522757555    9.12301600589038    5.51463529056210
H         0.46393712103737    9.20627786782990    5.53338530049001
C         2.31554022308010    9.94869698088537    6.31351247379096
H         1.84559725480172   10.67635056859154    6.95920991032557
C         3.69600609463641    9.84139038933891    6.28281394715103
H         4.30176780598864   10.48664628025926    6.90298405253932
C         4.30688239314259    8.90889168083781    5.46272641848247
H         5.38491033703276    8.82914605740528    5.45185618326617
C         4.21613734860904    8.06534360041063    2.02039236506226
C         3.49574743701404    7.80006200531288    0.86420427831800
H         2.91327327726297    6.89390625890065    0.78607581123843
C         3.49753074543395    8.70797655765527   -0.18150718815265
H         2.93354618202325    8.49293633951114   -1.07701787325927
C         4.21507448672006    9.88603086992366   -0.07903256292142
H         4.21850664352316   10.59227829128531   -0.89619022428254
C         4.92535889729169   10.16330444738322    1.07924310803507
H         5.48126086344343   11.08550507828295    1.16581095718855
C         4.92274365481025    9.26264110885540    2.12570155594397
H         5.47506570997499    9.48088415868180    3.02925625151962
C         6.00517733264209    6.83146944366274    3.84984292864428
C         6.98264628776170    6.97115069698717    2.87013567337959
H         6.69943464523697    7.20895368716241    1.85378752241423
C         8.31686207195689    6.80278017566255    3.19669296014845
H         9.07289799975309    6.91478068439798    2.43323606844795
C         8.68258397165839    6.48492486463117    4.49391884522409
H         9.72526581074204    6.35501823815432    4.74422962367369
C         7.70909502612440    6.31640383402353    5.46634583779103
H         7.99298823751270    6.04860753416124    6.47378485289303
C         6.37459362989970    6.47840134764248    5.14635936710880
H         5.59949392265575    6.31407404999967    5.88099543185710

