49
CSD_code = MACQAJ | q = 0 | S = 0 | Stoichiometry = C26H18MnNO3 | MND = 8
Mn        6.47380069682731   10.40898718550833    2.33422345433451
N         7.26275269824394    8.66586166245498    4.36900439629313
C         7.67851250635010    8.49241179487169    3.00176408580415
C         8.49066250758893    9.49896204755564    2.47643860487482
H         9.12122772239521    9.32209149505192    1.60923676435433
C         8.49984728610406   10.80563012692041    3.06713519695182
C         7.52726930634400   11.05394169945058    4.07025138238402
H         7.43225684445256   12.04077316860233    4.51883412900467
C         6.68859964237949    9.98318524584412    4.43343580349283
H         5.93942833333365   10.11812701961823    5.21001035393694
C         5.52595558018508   11.92327531399150    2.32002311347826
O         4.94867816595027   12.91890719011729    2.33945491461409
C         6.73027129200371   10.55626273207357    0.57093060094996
O         6.93904791928164   10.62749124124483   -0.55745329375438
C         5.10584507087651    9.25175783323547    2.33872210820614
O         4.27958006377274    8.46075149518396    2.39542703804617
C         8.11339268891018    8.23602748975164    5.39414400266691
C         7.85012918283720    8.59346082535347    6.71738725387243
H         7.01852493836766    9.24142599433230    6.94872055025228
C         8.64564149564527    8.11901973073726    7.74120570406074
H         8.42565976074713    8.40807871274353    8.75862426274076
C         9.71537713771098    7.28145251788998    7.47384756962774
H        10.33474872976690    6.91346178636699    8.27737556243111
C         9.98237747890541    6.92402564967442    6.16377854391568
H        10.81626403165120    6.27522850843187    5.93790043943063
C         9.19641708110504    7.39644338679359    5.13066213606490
H         9.42704837737092    7.10996868875182    4.11471015876107
C         7.49691742185672    7.16501498386173    2.40842877185026
C         6.87803507794179    6.15523424292242    3.15149700423383
H         6.53493002839831    6.36766233186271    4.15253119947739
C         6.70030959943478    4.89589238029275    2.61517717784633
H         6.22176958014327    4.12806381058391    3.20459940920467
C         7.12819027976968    4.61770042953168    1.32758691865905
H         6.98870309124210    3.63250880829578    0.90879394164678
C         7.72505526621677    5.61562399910374    0.57385684132969
H         8.04729160557421    5.41100779107872   -0.43639071117596
C         7.90395654801118    6.87821061922994    1.10211505448289
H         8.34607233433758    7.64671194342703    0.48495140787018
C         9.55333965082447   11.77986156022110    2.73887468608718
C         9.26469506717691   13.13371692879403    2.57903033236206
H         8.23978104944632   13.47411328501474    2.64696299155282
C        10.27388751476820   14.03293356370108    2.29421778660915
H        10.03751894698756   15.07855232004586    2.16435626316644
C        11.58261305370356   13.59565614388289    2.16735031547628
H        12.36943572731947   14.30017083411421    1.94335406492291
C        11.87783886759330   12.25209532518316    2.32327660880005
H        12.89603008434564   11.90531991183839    2.22558640747634
C        10.87122638050711   11.34739886907503    2.60562803511947
H        11.10888628529427   10.30113937538658    2.74342065620454

