81
CSD_code = MACXEW | q = 0 | S = 0 | Stoichiometry = C27H49N2P2Re | MND = 8
Re        1.44828252868267   10.15706882272362    4.61890351568342
P         1.76511066201706    8.38639333877529    2.98830809516114
P         1.74776454841471   10.83831531693024    6.92528497177125
N         3.63240670763644   11.36268854519040    3.71427090697424
N         6.83784176887432   13.51292298147743    2.07429019217249
C         4.88517469257709   10.91866234769487    3.77279023613126
H         5.04603802726062    9.97476616635084    4.27773336739258
C         5.97371967266338   11.58023335450320    3.24940063377900
H         6.94503146865490   11.12574689255766    3.35029524645365
C         5.80052703257173   12.81806731053286    2.60918949247266
C         6.60710571034724   14.77959851989458    1.42351066261965
H         5.91606427638678   14.66854557561735    0.58271791972929
H         7.54708001164489   15.16847715597261    1.04051773249144
H         6.19221888185407   15.51328042686874    2.12173927379059
C         8.18245940330504   12.99861386913342    2.16448393017762
H         8.48226501476864   12.86014335640496    3.20774114399383
H         8.87271737654543   13.70063248990880    1.70390890165645
H         8.27367744017454   12.03938790511748    1.64535408796417
C         4.47658008643978   13.28720331055462    2.56444213767587
H         4.22888184437585   14.22948631812581    2.10596111747875
C         3.46029212431705   12.54071156778474    3.11425251606323
H         2.44635906272357   12.91417068302679    3.06901600058635
C         3.08944306242402    8.79430940547103    5.42094622866566
C         3.87548056059211    7.99925686312363    4.57207745957120
C         3.52622645125008    7.89959157080936    3.11082032120053
H         3.69227705050267    6.88934328074300    2.71975535523834
H         4.12064918960163    8.60372307249408    2.51681015620467
C         1.50883131100471    8.68097012424901    1.15686272752509
H         0.47723195081118    9.05215499992092    1.09215232542963
C         1.66750804926054    7.45324851546388    0.26389239205113
H         1.63055179036741    7.76437078033021   -0.78002780927054
H         0.87271711508634    6.72876080614300    0.42036341719048
H         2.62712195580778    6.96691372607900    0.43282093063983
C         2.43983196653941    9.79367385151835    0.67851372248063
H         3.45538237421447    9.42361320979288    0.54236942269943
H         2.45961523015721   10.61246344906766    1.39657222646569
H         2.09620463960502   10.18909091337040   -0.27652616900130
C         0.89918571043967    6.75395604631817    3.23925445757644
H         1.27374347839940    6.07721342574839    2.46081124084859
C        -0.60176440298746    6.97404263980959    3.07942887787874
H        -1.14810195736151    6.05922864835904    3.30486417334183
H        -0.85172368293831    7.28417280864974    2.06707612497656
H        -0.92468598531332    7.75744922015348    3.76473350848228
C         1.20905607349058    6.13443979076057    4.59652140287768
H         0.86964152872229    6.78826152785523    5.39773363302861
H         2.27566684973758    5.95947001618028    4.72488311701224
H         0.69154108152175    5.18001747864571    4.69099677910752
C         4.97116858239634    7.28426767573385    5.04250685163647
H         5.56061001417723    6.69836150571801    4.34688293831329
H        -0.22198809110607   10.22989540210743    4.55087657046033
H         0.73013125002083    8.95282103376102    5.44116216216478
H         1.09673057419864   10.80947922951064    3.15646426863067
H         1.17388358422393   11.77771853208702    4.73398635470852
C         5.30693903009134    7.31430647959579    6.38150906023224
H         6.16615490106231    6.76829871750954    6.74490845555796
C         4.50698358054359    8.02862720183089    7.25343032404365
H         4.72989347274546    8.02775214881771    8.31347257777232
C         3.40788125881299    8.73617079736154    6.78715441623575
C         2.50240939938970    9.40849503761168    7.78283600563842
H         3.01964749565127    9.69949790465785    8.70209371746193
H         1.69080071468958    8.71983094387996    8.04496231753105
C         0.23570403828644   11.23268620984394    7.94592027082745
H         0.56921154581456   11.39169626989124    8.97872201641197
C        -0.77008240055946   10.08752065596448    7.92194236525851
H        -1.67321661054826   10.38189699545256    8.45459878882868
H        -0.37716575781843    9.19200604107608    8.39829322279870
H        -1.03180208751998    9.85133729746190    6.89202220628798
C        -0.41613665041214   12.49566552786783    7.39146280413297
H        -0.71983047796546   12.31362565883780    6.36147323638976
H         0.26759807741646   13.34190432761304    7.40287721325799
H        -1.29656318322903   12.75657061736647    7.97716684948810
C         2.89606845067964   12.24937631614568    7.38104409426944
H         2.60063446909394   13.07161783241421    6.71487064690545
C         4.33106032105871   11.85351165523167    7.04531868209467
H         4.98067024722209   12.72934406655267    7.05258330793352
H         4.38154813673752   11.40204162907692    6.05903337669746
H         4.71909527087740   11.13662915377827    7.76676986263748
C         2.81751242879564   12.72049765990042    8.83101537851126
H         2.94573251143579   11.88909678005174    9.52261349887233
H         1.87608188462272   13.21633588661040    9.05146472538418
H         3.62120428597887   13.43346438251493    9.01624332816187

