65
CSD_code = MADGOQ | q = 1 | S = 0 | Stoichiometry = C24H32MnN4O4(1+) | MND = 6
C         6.65529871495418    7.27907205250184    7.68754489796806
H         6.56207455742968    7.83523080280490    8.62523416302878
H         6.24210330053628    7.87165181787976    6.87375630010767
H         7.71086420907480    7.07398275837908    7.48563598638997
O         5.89566511460362    6.09165174676349    7.71659744405223
C         6.17574778729495    5.15752179459003    8.65025278190102
C         5.36298226968194    4.00448929177532    8.61310073015851
H         4.60037167015675    3.95117814874244    7.85280213437563
C         5.54213316837726    2.98670467017042    9.50686436785703
H         4.91867247521163    2.10565567423323    9.46580224826131
C         6.52022704364075    3.06759508169296   10.52556716810884
O         6.66736277900018    2.09484402508527   11.37472425710334
C         7.17624738557321    5.24091237494049    9.59784262404420
H         7.84096659920243    6.08979659258880    9.63409305336341
C         7.35696369484870    4.22250063624828   10.54952215859013
C         8.48373638525380    4.24482130070459   11.42051680678448
H         9.27230523030321    4.95414925400443   11.16213616276989
N         8.68117253067246    3.41772330897548   12.40291327548582
C        10.04747457123261    3.31586123350074   12.88634826476923
H        10.05614196484548    3.28983019335887   13.97807962517614
H        10.63463673716583    4.18112225562018   12.55521493378325
C        10.70576463327358    2.03680477992628   12.33868591074519
H        10.59977379472856    2.01956486573601   11.24995959953241
H        11.77000346092309    2.07252407942930   12.57410262759621
C        10.12279965935100    0.75832465499295   12.93891274533679
H        10.72313184440176   -0.10214115562471   12.61104819865248
H        10.17341833656867    0.81806906067597   14.02954317449159
N         8.71647710149187    0.57346515950636   12.56873597546085
C         8.12857668491016   -0.62073019024286   13.18287324199034
H         8.32716106775100   -0.57695064828023   14.25798825107713
H         8.57462475198181   -1.54182318635379   12.78481548890627
Mn        7.37521567776964    2.16021777982311   13.06309327099183
H         8.67395657900525    0.45409434930042   11.55234039801121
C         8.09519113065571    7.27907283677329   18.43863501140412
H         8.18841272611405    7.83523800891334   17.50095023126229
H         8.50838700567335    7.87164628729528   19.25242775266548
H         7.03962641293123    7.07398257137404   18.64054179739451
O         8.85482456589900    6.09165276358898   18.40957898891662
C         8.57474105014017    5.15752767310135   17.47592029975378
C         9.38749433086001    4.00448584625525   17.51307763098428
H        10.15013147809128    3.95118997135175   18.27335067237755
C         9.20834289067934    2.98670393844591   16.61931069772966
H         9.83181413178426    2.10566033962370   16.66035885634597
C         8.23028312770877    3.06762145986850   15.60057908703139
O         8.08313756377968    2.09486436901318   14.75142976235606
C         7.57423705465885    5.24092196787941   16.52833812515820
H         6.90951637690093    6.08980804891326   16.49209257827710
C         7.39352662534117    4.22251489221491   15.57665245525152
C         6.26674913331857    4.24484758300969   14.70567046314883
H         5.47818225492361    4.95416922772118   14.96406628902409
N         6.06929738684712    3.41776393822963   13.72327045636962
C         4.70298203441334    3.31592415146853   13.23987383473912
H         4.69430109967199    3.28985602856916   12.14815142251565
H         4.11583657483218    4.18121473796368   13.57098605029179
C         4.04476357276647    2.03678974879353   13.78744467205967
H         4.15074626789139    2.01956390797368   14.87616558970332
H         2.98052269511587    2.07250110913096   13.55206076849049
C         4.62766700781016    0.75824809056348   13.18727983287528
H         4.02734077712786   -0.10223874448282   13.51513151903293
H         4.57705681256566    0.81803586617420   12.09665280744812
N         6.03399567912704    0.57343469057697   13.55745522070020
C         6.62187622751619   -0.62076028772880   12.94330237844815
H         6.42330319762578   -0.57696413321205   11.86818309636340
H         6.17583668316780   -1.54185922076043   13.34136257238626
H         6.07652434285794    0.45406776794626   14.57385081262853

