90
CSD_code = MADMOW | q = 0 | S = 0 | Stoichiometry = C34H51AuClN2P | MND = 2
Au        2.32627654617207    1.69379497119223    0.38460454428151
Cl        1.78725430094688    2.77899646691724   -1.54378632924001
P         2.83657734639785    0.50300074453215    2.21121136678421
N         3.14855083201203    3.67986864639971    3.70683347032605
N         3.65508428172920    2.66394043515979    5.58411667008013
C         3.26491399321753    2.44277732986937    4.27902952323103
C         3.45546952374518    4.64140223335270    4.65907306100828
H         3.40548558263890    5.68247718436919    4.41684662050905
C         3.76636708670768    4.02176362806297    5.80739878057357
H         4.04772952564780    4.40850601573590    6.76430105325953
C         3.05164995419176    1.16573191931705    3.82467826928842
H         3.20586538092091    0.39640063585223    4.57753120116805
C         4.37911188507224   -0.51100950231480    1.89576778841241
H         4.22052637777401   -1.00190773515762    0.92784255606488
C         5.53646759490204    0.47106299437956    1.75859249787232
H         5.31713604598690    1.20115382420101    0.98144302050858
H         5.69108341752993    1.00141405882834    2.69798419995965
H         6.45767114329453   -0.04757735375023    1.49846846869678
C         4.67808187369005   -1.56424939733507    2.95700716403623
H         3.90654059204250   -2.32959727829876    2.99505180209476
H         5.62483016110253   -2.05291693430642    2.72942377299764
H         4.76160634753310   -1.10801735027149    3.94186538789537
C         1.55042223063939   -0.81058731577842    2.48142778707731
H         1.83160622243548   -1.38056600152666    3.37726544418253
C         1.44830186273372   -1.73465563176991    1.27388618631750
H         2.33501989797275   -2.35421290698697    1.16057992494710
H         0.58659730714272   -2.39256988005847    1.37782656295106
H         1.32016559446392   -1.14553699694766    0.36506878224471
C         0.21853919156539   -0.11354370819934    2.73186587146125
H         0.30551724838781    0.59373107930828    3.55469269556011
H        -0.08530079356911    0.43259205243260    1.83992597721809
H        -0.55723717666641   -0.83778976796097    2.97515838215066
C         2.64739450663937    4.12055969837158    2.44746698319836
C         3.55639400009681    4.57343050162947    1.48599998837982
C         3.06002444058877    5.24121947639143    0.37535525698686
H         3.73796019379079    5.60591992068843   -0.37869037502098
C         1.70268366609605    5.43440337818802    0.21506509715056
H         1.33319715110349    5.95208763642551   -0.65586622295945
C         0.81459595010891    4.94237629261848    1.15187123828968
H        -0.24277152288469    5.08241451165950    0.99805783105033
C         1.26681709345178    4.28019863120267    2.28426035573536
C         5.04126727053383    4.33716514747454    1.64156112411879
H         5.18367254071353    3.52090639635226    2.35907738309745
C         5.67683266279822    3.92114725666021    0.31221934784814
H         6.64812623970877    3.46284149874311    0.48797237345304
H         5.04032004659004    3.21110079843866   -0.21225430066405
H         5.82437392993762    4.78221740784049   -0.33423895453801
C         5.74399364767880    5.58646339414930    2.18184005594176
H         6.81970356441035    5.42508668306800    2.20919419374983
H         5.53863045876663    6.44018718052766    1.53988529863317
H         5.40864147979929    5.82276930445448    3.18880963867766
C         0.30105093043356    3.76840902070971    3.32982893938153
H         0.76283075768738    2.90608582405991    3.82322260345047
C        -1.02145893525760    3.30382004710682    2.71897598637718
H        -1.56996187976099    2.69723147503571    3.43678672070570
H        -1.64712140364150    4.15125274718933    2.45053429869021
H        -0.84261689642137    2.70898848099705    1.82700188192759
C         0.03425724135222    4.84736729025945    4.38512486421624
H        -0.68818542201838    4.48556251513467    5.11420385610443
H         0.94679299016427    5.11917428047317    4.91137457870262
H        -0.36890847762089    5.74069788008913    3.91292619565328
C         3.89166765262893    1.66383621178930    6.56018006258473
C         5.19825546769754    1.21155103012357    6.76589323963764
C         5.41458062653405    0.26127390615713    7.75453683761542
H         6.41421732768047   -0.09701159413513    7.94374547936886
C         4.36325396129943   -0.23167109144918    8.50405100499393
H         4.54915175172943   -0.97062527709008    9.26922257985489
C         3.07627697175685    0.21865895927946    8.28045198527849
H         2.26564211865832   -0.17304916672917    8.87509514490454
C         2.81688171277176    1.17331129049441    7.30630098249661
C         6.34939844581081    1.76877028953842    5.96130243065731
H         5.94535185849228    2.31355621954422    5.10180323033942
C         7.26555732370373    0.66692970827818    5.42701304522523
H         7.98605328532606    1.09240778930900    4.73190374742975
H         7.81757122253325    0.18737068887960    6.23094268024014
H         6.68983422343502   -0.09216343924631    4.90304834064252
C         7.14577311084908    2.75610603216066    6.81925552101574
H         7.96703610542927    3.17582909280219    6.24299301868641
H         6.51068319164213    3.57169417586424    7.15756483182757
H         7.55580417269676    2.25566652634514    7.69354888870388
C         1.41129906152594    1.67811780871536    7.08009486414446
H         1.41127921486602    2.36008291832008    6.22496867589244
C         0.45797104164110    0.52636470370443    6.75758060059984
H         0.83243373073595   -0.05052913702872    5.91498685770228
H         0.34426220231256   -0.14047589910363    7.60823194222048
H        -0.52340399239100    0.91776651038441    6.49884137381136
C         0.92949603044815    2.46166307131551    8.30326284057833
H         1.59837691809560    3.29479185548804    8.50929494583492
H        -0.06784852570565    2.85686724124359    8.12466118590883
H         0.89489618458689    1.82414843984366    9.18327491955998

