34
CSD_code = MADNIQ | q = 0 | S = 0 | Stoichiometry = C16H11CrNO5 | MND = 9
Cr        0.96459377469456    2.13813376187404    1.70881664263490
N         2.94304897012687    1.50762162745771    5.03416899741663
O         3.29654657554715    3.78011800883725    4.88496499871672
O         1.35248099129879   -0.13483229980333    5.70237844362241
H         1.07921846504448    0.52436966256903    6.35132576098690
O         2.48782970590298   -0.01761163729108    0.34183310665493
O         3.18925461298020    3.61322846115691    0.38849571108217
O        -0.12601501837447    2.13185353443573   -1.06079472636819
C         2.64776367682133    2.79217265548728    4.61978894706787
C         1.96076338066588    0.50588522180956    4.60528512839428
C         0.97641406705799    1.35613106335700    3.81764441188364
C        -0.26084009187385    0.98794990417324    3.27592240591424
H        -0.60971219933471   -0.03541445474187    3.33973666741817
C        -1.05048385538577    2.00100880525153    2.71787878664898
H        -2.03999160905388    1.76131159980249    2.34660607560086
C        -0.64386125071340    3.35754741837234    2.75997253628345
H        -1.32272998457262    4.12264816195145    2.40382694750851
C         0.58540249729889    3.71653124107395    3.30782649246514
H         0.88534447168816    4.75218613090118    3.41087435344823
C         1.39242674422101    2.69503303041775    3.85307432348585
C         4.09659276548054    1.21286522513750    5.75096817863130
H         4.70139791354693    2.09643069493551    5.90378163665282
C         4.43008723388276    0.01911986000639    6.21409507378048
H         3.81883901198837   -0.85226400992463    6.06178371133349
H         5.34548763784633   -0.11022913793158    6.76071675479108
C         2.57337556508506   -0.50857976122924    3.75498183262146
C         3.08246844409408   -1.36424728266300    3.08643209573777
C         3.68967223090448   -2.36270040949781    2.24610917596190
H         4.74459495624039   -2.46291376671936    2.49596707036019
H         3.59343744861005   -2.05992934892366    1.20475129132889
H         3.19351219881789   -3.32094392421068    2.39085296634035
C         1.89924338355524    0.77645417034525    0.93838860415735
C         2.32401409343461    3.08401725477576    0.93074757128595
C         0.25892319247203    2.15364853880696    0.02559802615090

