51
CSD_code = MADQUG | q = 0 | S = 0 | Stoichiometry = C22H18N6O3SZn | MND = 5
C         2.58692322931993    5.21611079014404    4.97152254972282
H         3.04625632447073    4.28977634976810    4.65482242382301
C         1.65190833771466    5.87190385611874    4.16454071264013
H         1.38353648507893    5.45453918973014    3.20708015241527
C         1.07392189153631    7.03040599056521    4.62360385431198
H         0.32733983076902    7.55250945817335    4.04259606630388
C         1.45585994154983    7.53906769236575    5.87662269702149
C         2.43357913938851    6.82057299392270    6.59761760722710
C         2.86508266106143    7.30529055355069    7.87618605157310
C         4.20340238571458    7.03614295858562    9.71030011146855
H         4.98804146534962    6.46480845398676   10.18705198428939
C         3.64641992691221    8.14795583764655   10.34855702531938
H         3.98528502583641    8.42556170274283   11.33364719553380
C         2.66417662557342    8.85932815068052    9.70490717145785
H         2.20084000526790    9.71877617166537   10.16648021971063
C         2.25551065704972    8.45482402480567    8.42284835937745
C         1.25727020524119    9.14347526344934    7.67548278025684
H         0.80663159523670   10.01932358041877    8.11777301792765
C         0.88366753945440    8.71258428794997    6.44715603699244
H         0.13058291810724    9.23948559337095    5.87998832047404
C         1.42741872787389    5.19699079258109    9.57972739167920
C         0.30754717818679    6.06221478220086    9.73472372140890
H        -0.29353080345718    6.24219929900112    8.85546387315272
C         0.01478943497588    6.67109347801225   10.91945385208855
H        -0.81894541330030    7.35003861647924   11.01576153097946
C         0.81242048254630    6.41778739058787   12.04445491206878
C         1.87652293029731    5.53024259325068   11.95652306233539
H         2.46339733906805    5.33807101143478   12.84347919111447
C         2.21878005361689    4.92994673802556   10.75313860453790
C         3.36327838100571    4.06123113067012   10.72836540405913
H         3.73510064379382    3.67828538830547   11.67921788959001
C         5.59829118518715    2.56703089849039    8.59104831183515
C         7.22234342429582    1.21695110724897    9.85270573417513
H         7.52785888049400    0.17840767691024    9.69884221040618
H         6.45660444824444    1.25744416753889   10.62793064921252
C         8.42565611699638    2.06376351618085   10.26060205188074
H         9.18573218242352    2.04918650665442    9.48248947591910
H         8.85929477346174    1.67806814992227   11.17895062045874
H         8.11432010294563    3.09187059130887   10.42455945573034
N         2.96151561059297    5.67571071506257    6.14264348304362
N         3.82406121402134    6.62262817080677    8.52137826181162
N         0.54770485188104    7.08799414746314   13.26294105945921
N         3.96973839039829    3.72963051750300    9.64071417588346
N         5.02532849569767    2.90544252688937    9.71177620246807
N         6.61620614800388    1.69290573043090    8.63289468152038
H         7.09843399897110    1.53408413930341    7.76189191841605
O         1.67870460030049    4.71238000793052    8.42491967804292
O        -0.37503264592838    7.88789266463066   13.29192302383760
O         1.26898870421265    6.85316528297063   14.22021659315710
S         5.17457340882017    3.09569748793497    6.98798128712169
Zn        3.56216096373474    4.56170187462736    7.85859735477533

