44
CSD_code = MADREP | q = 0 | S = 0 | Stoichiometry = C24H14CrO4S | MND = 9
Cr        2.31391274369314    1.71654199687950    1.78118869742980
S         8.61015838713462    0.11071214692090    3.72151597144498
C        12.77148592268522   -1.22542655460846    6.37642532394863
C        13.79853769638506   -0.58169728625579    7.06679701545328
C        14.79781940054833   -1.30653387058705    7.68624197558295
C        14.78865365289972   -2.69775833381366    7.62750971060198
C        13.75988532054702   -3.34589657317401    6.93674783414669
C        12.76602010564754   -2.62415942866724    6.32018916869721
C        11.75657453479341   -0.48192251117277    5.74957289780838
C        10.88971317307145    0.17811895546901    5.22027725995660
C         9.88356141078553    0.91052032754680    4.60352444245617
C         9.72568578829884    2.27822992701572    4.58594953689526
C         8.59711726328970    2.69447589060952    3.87687050036049
C         7.87724236961715    1.64905372100960    3.34244967201036
C         6.71278578164830    1.71059119019901    2.59319483922702
C         5.68791702258596    1.73605779747162    1.94530423796373
C         4.51398402010923    1.77684541242432    1.17909190848976
C         3.91151051077430    3.00504047475010    0.83369518760714
C         2.80091344776173    3.03742904591439   -0.02479094677533
C         2.24293649224524    1.84479998135682   -0.49019624786473
C         2.82785582231260    0.60725433884155   -0.14749202544632
C         3.93230736657039    0.56988560350519    0.69677720764961
C        16.78193331658190   -2.92321081149826    8.90923872432156
C         1.81112516434120    2.98522348782470    2.99015410444791
C         0.55406547357947    1.26821259670507    1.95138141745481
C         2.46422641432797    0.72278250180063    3.30478600260961
O        15.71853857887406   -3.50898969041081    8.19881263252689
O         1.45228707762710    3.73373804220591    3.79248276002281
O        -0.55377447990241    1.00174064152809    2.13593072986565
O         2.50245654040750    0.13196101812668    4.29479437179420
H        13.80888952085974    0.49736612042000    7.11556977727980
H        15.57776545730816   -0.77778491952985    8.21152769568816
H        13.76912441327485   -4.42394139435815    6.90263838126375
H        11.97391120705606   -3.13050408672197    5.78910551708090
H        10.41142771301043    2.94532188787812    5.07738270135689
H         8.30418291153532    3.72213643301310    3.75440018648042
H         4.38500448066003    3.92993573481464    1.14437423759209
H         2.40704321696377    3.99042067705141   -0.35732861298325
H         1.42242048587495    1.87034936782704   -1.19760478967561
H         2.44561300506599   -0.30778318311490   -0.58375813099717
H         4.43102271051513   -0.36903290047772    0.91059628139518
H        17.38545794840822   -3.75314840977796    9.27326683597452
H        17.39560278896451   -2.28717800452577    8.26289671145350
H        16.42269782126942   -2.33747736036597    9.76160829741497

