60
CSD_code = MADRUF | q = 1 | S = 0 | Stoichiometry = C21H27BN7O3W(1+) | MND = 7
C        -0.61701124110606   10.91995686671860    3.42569741606247
C        -2.26496916916059   10.55423114005663    3.33392561523052
C        -2.24074815435687    8.95925204612784    1.66083688007777
C        -2.97803664043227    7.91009622621015    5.65169697221543
C        -3.76771008124902    7.42633120249462    6.73822271235845
H        -3.29484161899702    6.52842286353007    7.14694107350895
H        -4.75519243838887    7.15053246936258    6.35461460676427
C        -3.90559919147224    8.49903519469574    7.82756380434368
H        -4.36223500023382    9.39980307306128    7.42605012421716
H        -2.93464872241441    8.75289376664944    8.24412311467490
H        -4.53585741491327    8.11782676823248    8.62550864851635
C         0.03810740247577   10.54931081110854    0.15773540655508
H        -0.64261716422235    9.98366395427556   -0.47882132588182
H         0.59382025404483   11.23666914797068   -0.47466327183960
H        -0.55220300261641   11.12816418907279    0.87003501033965
C         0.98519573328001    9.63485092798697    0.84795436524068
C         2.29215401446755    9.32491576967281    0.47811958335993
H         2.83216356990002    9.70823947990658   -0.36211899568303
C         2.74998937382082    8.42125486406359    1.42207882001134
C         4.08309493368572    7.77611923895021    1.49812005008311
H         3.99698519385546    6.69492079130637    1.41086400788310
H         4.56828615317881    8.00211379661705    2.44522372080741
H         4.70719667172244    8.14265529407519    0.68867764896788
C        -3.02915733316093    6.03779047412707    2.58353147683716
H        -3.19009464447955    5.96868639403580    1.50706402489630
H        -3.41159476303645    6.99903323530798    2.92872607405319
H        -3.60077565108776    5.23791143419524    3.05008156619377
C        -1.58035213037623    5.86196202914701    2.88329256124492
C        -0.87511135972711    4.66052791377231    2.90102620603575
H        -1.26979098699305    3.67957895627227    2.73698831843753
C         0.44321000793924    4.99804456721782    3.16322612704816
C         1.61527325977655    4.09829411012497    3.28259975644176
H         1.29220326534424    3.06650588418974    3.18119090277603
H         2.10283634317823    4.22258630590948    4.24716886160942
H         2.34546751265261    4.31348266476473    2.50498853618110
C        -0.55082529628576   10.43755143056724    6.57799241969356
H        -0.73952912004983   10.28063310090350    7.63823447917963
H        -1.49349966094972   10.37429029819329    6.03254499419112
H        -0.15435880083526   11.44715359989462    6.46468869989244
C         0.45320002011449    9.45196935683516    6.08968675693529
C         1.63811929998996    9.08210037416820    6.72607026684495
H         1.98991580584146    9.41984929282799    7.67840020316069
C         2.26980107783000    8.20092054679737    5.86577806449231
C         3.57054440909972    7.51242282948623    6.04714043349576
H         3.98621926507273    7.77395969041243    7.01566652456526
H         4.27471085013642    7.81055991380634    5.27300439780973
H         3.44951337146834    6.43235134611385    5.99595076996701
B         1.72182390749050    7.24542624281229    3.50404082642613
N        -2.37586409165379    8.36756216951637    4.78004608641344
N         0.67561670913091    8.95165088143229    1.95482680061773
N         1.75510373379064    8.21371026770980    2.30453168734384
N        -0.73105999896907    6.86772976908208    3.13403337881142
N         0.49837608097969    6.33371758615408    3.29900736611113
N         0.37171527369516    8.81443458424978    4.91818431387554
N         1.48341084971644    8.06041538465210    4.78250743200272
O        -0.18271528900979   11.98854123424814    3.60137508877668
O        -3.11406712997391   11.36471398286632    3.32174804036837
O        -2.98792837136501    9.04710917799368    0.79752376538480
W        -1.04885241714673    8.97709238202678    3.27717554176193
H         2.71139254098818    6.61957070604561    3.57527126230761

