49
CSD_code = MADRER | q = 0 | S = 0 | Stoichiometry = C20H18N6O3SZn | MND = 5
C         1.80203729209354   -3.53313841766380    5.37968878403665
H         2.75468860140610   -3.52734737830694    4.86879055217455
C         0.89385130191067   -4.56586579263791    5.20122398509158
H         1.12162356967393   -5.38610534515642    4.53970206430017
C        -0.31288920300847   -4.50203945961281    5.87774234222602
H        -1.05992934224489   -5.27105214547406    5.74900293743489
C        -0.55193173994981   -3.43126011014046    6.72267792864664
H        -1.49278921164230   -3.35171352063620    7.24296138139866
C         0.42434004149673   -2.44645787343836    6.85653245368943
C         0.25879049418501   -1.28138003015232    7.74151228076974
C        -0.64267462398293   -1.26693937095123    8.80515155683775
H        -1.24693860835281   -2.13167605878672    9.02651075771494
C        -0.73541508077174   -0.13363685870840    9.59443337004295
H        -1.42600816037797   -0.10231950920104   10.42375079957899
C         0.07417977487836    0.95347862512151    9.30594509443008
H         0.03118119091245    1.85602946501435    9.89357210238796
C         0.95391535043195    0.85061995044934    8.24014613198607
H         1.61528808856346    1.66551410130479    7.97900343837699
C         0.40835560555686    0.51653415209050    3.87540819707210
C        -0.77412838959505    0.33258082657957    3.10458291257336
H        -1.16890520079294   -0.67120673812423    3.05370606574684
C        -1.39407464981179    1.36102999715671    2.45835296402732
H        -2.29346609038469    1.20815401873678    1.88136439432118
C        -0.85463093367151    2.65351911534596    2.53985171744463
C         0.30427331509871    2.87677632828917    3.26548076496980
H         0.70321782121595    3.88048996113002    3.30370660434426
C         0.95163210757526    1.84553110323064    3.94041468351031
C         2.15436549405303    2.17258938017042    4.64371509664063
H         2.52841445995535    3.19259664966900    4.54424960631972
C         4.72607045856373    0.95555320950712    6.55382584926380
C         6.31129200690500    2.76651457548617    7.04383558946380
H         6.83107938538034    3.04120094503112    7.96573098562097
H         5.44415645495943    3.41408271425145    6.91122483546052
C         7.24878022057678    2.90391588314646    5.84704246548697
H         8.10876097832660    2.24789662902083    5.95835216843046
H         7.59986229474719    3.92844827649917    5.76063375003237
H         6.72093612526935    2.63555011826803    4.93645082564179
N         1.57008446491125   -2.50783521686900    6.17793283482545
N         1.04279176356880   -0.23249382296305    7.48775579190843
N         2.83235493831043    1.34739682978930    5.36907855377832
N         3.95953647867164    1.81076726103506    5.94336932327860
N        -1.49646878402042    3.73140509823832    1.87860595620314
N         5.81578786319682    1.41888834595651    7.19804346654049
H         6.46703010604007    0.71171400438674    7.50376975138495
O         0.91870927133493   -0.50207660665945    4.45946421747508
O        -2.51393016817813    3.49554795543025    1.24710812949463
O        -1.00421899891527    4.84409560233194    1.97681552581426
S         4.50335584724400   -0.76425433721618    6.66496660585062
Zn        2.32275601868446   -0.53872252996620    5.80911240595388

