64
CSD_code = MADSUG | q = 0 | S = 0 | Stoichiometry = C27H29AuNO3PS2 | MND = 2
Au        4.42473729488366   11.69900423580865    3.99420172173725
S         3.20848630546820   13.48566265085316    3.03161564604240
S         2.85351758178537   10.89630176350746    1.67142157805150
P         5.58664500943851    9.97425203919734    4.88754270055072
O         9.25042176142716    7.26772998829298    1.06617844557326
O         2.13129110672396    5.34522338066149    6.30314220305082
O         8.57370941554413   11.54662625801234    9.77583889532608
N         0.99154408043478   11.37617021561500   -0.59074329428857
H         1.57823749917123   10.73734625184274   -0.05628408316068
H         0.43739820351939   11.06278344334404   -1.36670431513756
C         2.48068796594699   12.54130146321807    1.78998019484382
C         1.59103802777263   13.18674268112570    0.91060087553038
C         0.92678656594818   12.63942034808371   -0.15867463340001
C         0.09671871473830   13.67082666830273   -0.86661384024137
H         0.61752093588982   13.98519063510788   -1.77627366713967
H        -0.88191521086171   13.28458888169922   -1.15687349877402
C         0.01170557385106   14.81827308767833    0.14540135961917
H        -0.88479847496830   14.69947270255927    0.75555732994621
H        -0.03109772110713   15.79400205525380   -0.33570635389206
C         1.25635508251786   14.65473137478618    1.02490057258918
H         2.09223087886066   15.25496282065652    0.65499927659687
H         1.07990048557448   14.94575983783743    2.05994167546650
C         6.72775378629125    9.18122579465496    3.72907674664792
C         7.47643268983814    8.06362127713537    4.10222841725856
H         7.39934277485793    7.67862063550052    5.10969723141546
C         8.30742551590112    7.45725743678880    3.19093672467672
H         8.89726657165069    6.59450771753766    3.45881201883207
C         8.40271038831371    7.94282677016463    1.88101477892522
C         7.64540527924909    9.04888376520756    1.50601012294217
H         7.68897732010309    9.44042837341156    0.50215221905069
C         6.81435443015897    9.65792638807254    2.42872153412698
H         6.21636001213977   10.51082336919398    2.13553026265391
C         9.38365924469490    7.68807668693478   -0.27169575848903
H         8.43174982397326    7.62634464328752   -0.80800476019456
H        10.09793595375362    7.00267214650380   -0.72497780373539
H         9.77221961770069    8.70938086116725   -0.33462295721400
C         4.54553735841356    8.57907418407238    5.38674879629094
C         4.79465268288963    7.77228231421772    6.49500152574232
H         5.62923325411035    7.98642825216079    7.14799816845668
C         3.96689601701685    6.70681937099539    6.76747162688742
H         4.13933038011879    6.07244780672169    7.62299953223609
C         2.87775599557412    6.41811841863509    5.93940529068030
C         2.63146708808972    7.22421720310295    4.83026326958641
H         1.79882429787868    7.03129945194454    4.17277194025693
C         3.46120561241527    8.29564308426667    4.56294530539175
H         3.26612056101053    8.92573782991686    3.70452372415747
C         1.01430788936420    5.00027137326084    5.51734854953926
H         0.27610461181339    5.80778585383595    5.49322595227152
H         0.57668679959503    4.12620909998981    5.99701105880398
H         1.30753174034077    4.74359362177995    4.49458077838276
C         6.57764510514121   10.35546220483689    6.34820438774125
C         7.95883998262621   10.48930275317277    6.30679143519763
H         8.49245313493407   10.28000257688677    5.39001913009854
C         8.66280658983954   10.88219732425190    7.43154634390321
H         9.73633483790723   10.96960848480982    7.37101468803351
C         7.98647086291015   11.16305438184589    8.61525385744980
C         6.59103282265305   11.05736177161780    8.64806879929874
H         6.08283239228980   11.29307874811956    9.56977066635103
C         5.89702428410607   10.67032416253843    7.52733041327341
H         4.81726883303939   10.59974578712722    7.54952723645998
C         9.97340848455019   11.69390463514286    9.81333199406718
H        10.48276838209372   10.74911539728279    9.59821679862472
H        10.20847425521242   12.00573503102397   10.82958854074285
H        10.31547125290479   12.46101022724930    9.11161262422388

