60
CSD_code = MADVAQ | q = 0 | S = 0 | Stoichiometry = C18H33BN6PRh | MND = 6
Rh        8.52926786459144    1.67984226217672    2.37710249491142
H         7.46993475450311    0.62776261946004    2.53857952315171
H         8.78964230074198    1.07305782079551    1.02662475105185
P        10.05855292115446    0.32655673778795    3.35817581937994
N         9.93175235011661    3.29018834199882    1.93831323869920
N         9.66194178571094    4.46831237277427    2.52563493625757
N         7.20972434775616    2.96417895261285    1.60736316778445
N         7.24619422171019    4.23851874084863    2.04407121161206
N         7.93229527287590    2.56863850709391    4.27258291035425
N         8.04178103654948    3.90215475108401    4.36301081525761
B         8.26406572330385    4.73490866227387    3.09855185471274
H         8.11433352588143    5.88353358660526    3.31888690739455
C        11.04711300823264    3.43461065994181    1.23014345899449
C        11.53471132287013    4.73477987391135    1.40550939922787
H        12.42251348409163    5.15434758358577    0.97650376157238
C        10.62448514943301    5.36366590888000    2.23021116909361
C         6.24367031992254    2.86078800259449    0.69984739178277
C         5.63514491587316    4.10917708740255    0.54794985202643
H         4.82334417450339    4.35680668702419   -0.10583043637548
C         6.29634377682589    4.95677525169321    1.41478928187500
C         7.49117503742537    2.11662610139857    5.44275056117953
C         7.34449764436773    3.19427610709922    6.32254433025274
H         7.01445926462841    3.15584160218350    7.34132768469386
C         7.69930893113545    4.31467847449530    5.59802145176184
C        11.60012302877999    2.40547809529416    0.30957808679213
H        10.97417926799977    1.51787935979864    0.32940678940094
H        12.62469017314304    2.14570107918713    0.57304856708737
H        11.61088872825921    2.80505756157249   -0.70467162419379
C        10.64502192235515    6.76041847665217    2.73895989005002
H        10.52986118606054    6.77883359095861    3.82118862749673
H         9.83364922726455    7.34269489409711    2.30406142398591
H        11.59007866288371    7.22825527595845    2.47479322846326
C         5.91169334219203    1.60284225048539   -0.01915564142848
H         5.82267027881503    0.77851271612294    0.68545850221622
H         6.70507880419104    1.35149441865148   -0.72201467999386
H         4.97863344346779    1.72283175708388   -0.56394274406936
C         6.04559397885773    6.40359421867851    1.65039904812346
H         6.92534448438071    6.99498720156685    1.40131301136067
H         5.79688937819458    6.58907911095735    2.69401688579986
H         5.21616621941415    6.72988436320558    1.02834400571823
C         7.14457255333099    0.69592564632274    5.71662472018287
H         7.07000027870005    0.15566297371467    4.77592595707239
H         6.18720035576941    0.64869066789799    6.23359157807158
H         7.89058647341527    0.21698414740587    6.35190481162370
C         7.72211999216421    5.73488986460029    6.03658076875170
H         6.97975617734772    6.31863316707202    5.49396218447801
H         8.69868131878796    6.18007513902963    5.85442712115183
H         7.50074583429848    5.78971023147801    7.09944332869611
C         9.57127801613454   -1.38417397096891    3.83037263222314
H        10.39871199567632   -1.90349999757840    4.31255148935646
H         9.28615217286795   -1.91212535002753    2.92219895514371
H         8.71567372394282   -1.36527322546313    4.49807583796744
C        10.76603471699380    0.94219747484421    4.94527457651168
H        11.47973814611954    0.22735566789264    5.35270415144741
H         9.97484512942781    1.11989662868442    5.66808103073090
H        11.27192439053853    1.88765173884721    4.75146652986489
C        11.65035341931752   -0.10043196825223    2.53585586433072
H        12.20828091936301   -0.80826701499863    3.14810886864837
H        12.24143558569844    0.80112619558678    2.40275596024662
H        11.45169353937025   -0.54449908204424    1.56324471990935

