51
CSD_code = MADVET | q = 1 | S = 0 | Stoichiometry = C20H24MnN4O2(1+) | MND = 6
Mn       -0.00000000667227    0.00000001697988    1.33727394826070
O         0.43859863814445   -1.48219126297721    2.29173753890001
N         1.86383712982844    0.53710411492145    1.41261217781210
N         0.08303172272485    1.35852388945485   -0.50591759596142
H        -0.55874626186572    2.13040257176335   -0.31927298934835
C         2.75465085315817   -1.19584652571954    2.82204277595903
C         1.51491088606636   -1.89001717110298    2.90892573005298
C         1.46685870795997   -3.07903071994515    3.66220286999052
H         0.52162979999205   -3.59618732565760    3.73499549126942
C         2.58704466894085   -3.55446287729863    4.30316065245491
H         2.52403962878222   -4.46077418804584    4.88560483278961
C         3.80138831040022   -2.87566533206822    4.20870895516225
H         4.67314497360818   -3.25953900605264    4.71409145115528
C         3.88049299707903   -1.71418561632884    3.47613458726120
H         4.81735316416144   -1.18164472574450    3.40044448244221
C         2.83724544886157    0.02731727912014    2.08814278939890
H         3.79703281482689    0.54577788086850    2.12651321404433
C         2.07287464003936    1.85044857038168    0.83489058892318
H         1.56361409726522    2.57040557912092    1.48772501984093
H         3.13668021814927    2.11070353033860    0.78685481554787
C         1.45253785934988    1.90223966382805   -0.55621678418424
H         2.05009044107345    1.28287550589492   -1.22808724628450
H         1.46241055453474    2.92901859528924   -0.93771021993969
C        -0.29037838452438    0.71001456141460   -1.76688381379784
H        -1.37965058917445    0.66840353632278   -1.82816132809795
H         0.07871073903714    1.26918972246110   -2.63582544140983
O        -0.43859864879660    1.48219128582151    2.29173756375812
C        -1.51491089906666    1.89001718902171    2.90892575706813
C        -2.75465086347733    1.19584653480911    2.82204280705817
C        -3.88049301734124    1.71418562415898    3.47613460185645
C        -3.80138834060778    2.87566533257151    4.20870897886953
C        -2.58704469047909    3.55446285173903    4.30316073055050
C        -1.46685872235875    3.07903070479656    3.66220295143880
H        -0.52162981623156    3.59618731448688    3.73499559156210
H        -2.52403966748276    4.46077418768399    4.88560488194545
H        -4.67314501892559    3.25953902699369    4.71409143111864
H        -4.81735318180639    1.18164473339577    3.40044448305636
C        -2.83724544775103   -0.02731727724166    2.08814283555217
N        -1.86383713984682   -0.53710408890883    1.41261219304061
C         0.29037842459023   -0.71001459860638   -1.76688379683941
N        -0.08303170647709   -1.35852386281637   -0.50591756098129
H         0.55874628998414   -2.13040252314466   -0.31927291433010
C        -1.45253783155767   -1.90223966660229   -0.55621674075635
C        -2.07287464963630   -1.85044854755669    0.83489061415071
H        -1.56361412933256   -2.57040555010988    1.48772506638379
H        -3.13668022873668   -2.11070349807288    0.78685481965601
H        -2.05009041092783   -1.28287555206676   -1.22808724101735
H        -1.46241049903653   -2.92901861128853   -0.93771013596063
H         1.37965063058476   -0.66840357490725   -1.82816129377248
H        -0.07871068363006   -1.26918980364563   -2.63582540713143
H        -3.79703280339965   -0.54577789773011    2.12651328148186

