65
CSD_code = MADWEW | q = 1 | S = 0 | Stoichiometry = C24H32MnN4O4(1+) | MND = 6
C         0.05379588650461   13.27727030298910    6.44722878582766
H        -0.34567746116586   12.57337912712232    5.71137632677198
H         1.13138327556343   13.39397683126899    6.29875264607213
H        -0.43234430599820   14.24268674657120    6.32088443942555
O        -0.24634618087711   12.87400153259382    7.76556598024720
C         0.22961514372029   11.69351307645256    8.21977921571135
C         1.02330258355586   10.80669577238100    7.47416289737853
H         1.29549387643464   11.03726463640232    6.45675376485400
C         1.45916324720463    9.62726398801237    8.02741069830811
H         2.06415780355060    8.94895780153591    7.44321541007182
C         1.16762364537539    9.27864574284169    9.36127187371763
C         0.34314967386322   10.17242757379601   10.11238129915040
C        -0.11820589507198   11.34933353740884    9.51746870200281
H        -0.75638628301715   12.01956961260947   10.07176377486596
C        -0.14979715519402    9.76216730344660   11.38712021675545
H        -1.03390975710778   10.29190074330302   11.74578323080609
N         0.30063312592745    8.75267535465839   12.06540125225174
C        -0.57712733100712    8.23532854667148   13.10110485653257
H        -1.34974482290932    8.97314908572890   13.34921768855079
H        -0.00285570863253    8.01900712881248   14.00429731615144
C        -1.26499364970449    6.94842266858410   12.61145084120706
H        -2.03835340371993    6.67926581519979   13.33171556868254
H        -1.75051646072132    7.14747484012418   11.65157122083182
C        -0.30398281091301    5.76841858102736   12.47384093892586
H         0.22480291517746    5.62405866234604   13.41996279711177
H        -0.87867476875697    4.85704949067868   12.25590112613291
N         0.70225248518809    6.00106380643042   11.43330444145681
C         1.66430340705152    4.89989060431485   11.32868746146697
H         1.18954955104601    3.98108707711500   10.95956844982095
H         2.06158644993398    4.70588729846471   12.32954804139077
C         2.80315324631177    5.31211848435397   10.40092343100343
H         3.49929242995323    4.47438543903301   10.26135085155453
H         2.39553155597220    5.58992078503650    9.42428875925592
N         3.47812768578619    6.48874581494140   10.95658305982420
C         4.44534097149536    7.07293341783865   10.02294951771596
H         3.90753919880737    7.32916880120255    9.10607577714654
H         5.22813835729331    6.34281430894815    9.77280744210593
C         5.09550756209749    8.33322280746741   10.59211004712151
H         5.86520162474065    8.66755651462273    9.89553961210284
H         5.57860341129887    8.10424700326131   11.54650054807814
C         4.09774624598410    9.48685066831639   10.79967812912075
H         4.66020763840158   10.40044000701208   11.02799523076926
H         3.53404481123973    9.64892498451777    9.87846415012339
N         3.18875179330551    9.16818913557999   11.88705751869994
C         3.43049056078267    9.74842146698250   13.02372180160578
H         4.13741626094226   10.57971060821953   13.05205123967395
C         2.94215581693213    9.30237983877782   14.28555505900574
C         2.40651709437099    7.98507129576569   14.39648726521368
O         2.21009318880842    7.23268673544301   13.35496274775317
C         2.13478099998628    7.49453104396545   15.69498357144384
H         1.75305721541753    6.48878466506831   15.79175571297335
C         2.31650096066553    8.27603127975671   16.80102135736595
H         2.08372723263052    7.90866007266197   17.78759140576224
C         2.82129067778862    9.58894127095942   16.68963951068345
C         3.43756751582171   11.58178303529446   17.83251338005214
H         2.79478977614752   12.23579166267131   17.23575838907259
H         4.46104891134358   11.62261037361101   17.44808020917256
H         3.42898687683317   11.91465944427886   18.86843861875037
O         2.94781647009421   10.25978896100129   17.85428607913054
C         3.15316848176084   10.07459835846102   15.44051721532033
H         3.57777650196783   11.05882524834726   15.31932431673512
Mn        1.89922877610421    7.75794902107347   11.62761211455339
O         1.60581355255556    8.16076478679515    9.86393134294287
H         3.99115998035403    6.18842417676633   11.79066409147790
H         0.21302954071291    6.07383519306094   10.53638923420803

