77
CSD_code = MADWUL | q = 0 | S = 0 | Stoichiometry = C29H35BF4N6PRh | MND = 6
Rh       -4.10961247209538    5.09592785443121   11.54967809114905
H        -2.91898072667291    5.48062269210468   12.35778936885850
P        -5.49653320099527    5.24196965663331   13.37479486268794
N        -5.80794162301711    4.47562722649267   10.23947802348331
N        -5.98793239064094    5.22627825144909    9.14155848892926
N        -3.00983459479390    5.14557297198305    9.87001323800377
N        -3.57809705159389    5.68224476152642    8.77340465880688
N        -4.41258742301685    7.16066540740189   11.07391465646097
N        -4.98231827401691    7.40058565086361    9.87818237528409
B        -4.98546373037291    6.32198324793742    8.78467519483557
H        -5.23455942858515    6.79620292510872    7.73594725915071
C        -6.73329155626560    3.51835676402957   10.22758151302842
C        -7.54058003894673    3.67415348595201    9.09690945768317
H        -8.37204382303616    3.06307280695313    8.80986629852517
C        -7.03294111355112    4.76986182456497    8.42734879531359
C        -1.78808108597363    4.72716583434153    9.54809580497068
C        -1.56852458580694    4.99506024742230    8.19476479592805
H        -0.68444093290575    4.77721529201654    7.63116954519465
C        -2.72272953429268    5.59964415150290    7.73727927411621
C        -4.21415997127460    8.33029444129726   11.67622925237978
C        -4.72274632430612    9.34940502301701   10.86341386619605
H        -4.72734486960461   10.39917713438686   11.07590197870425
C        -5.19626104724650    8.72221510924689    9.72908864886835
C        -6.85270313229955    2.43701371810548   11.24182568814737
H        -6.06177072296212    2.52790366830002   11.97966929424996
H        -6.76275457370796    1.46671842546998   10.75457191458373
H        -7.82602478115545    2.47297732868651   11.73207884794566
C        -7.50549815139948    5.37823479638417    7.15672673686668
H        -7.73608951149529    6.43305110212796    7.29428174561747
H        -8.40056026007647    4.86195792995461    6.81988140491057
H        -6.74350527165143    5.29820844170304    6.38306830413060
C        -0.82730789445650    4.09240078302137   10.48898632018953
H        -1.04275364891916    4.38905148145843   11.51223923107088
H         0.18652663205668    4.38991891990323   10.23038386121363
H        -0.89196040715290    3.00657782017454   10.42454423394494
C        -3.01709117659475    6.08771573768517    6.36459385400340
H        -3.19827658517972    7.16119012202708    6.36553215551195
H        -3.89902029786968    5.59500598440393    5.95930111753390
H        -2.16894010896596    5.87582060640252    5.71921401928152
C        -3.45655049504374    8.52191280548560   12.93992359283332
H        -3.08299298206808    7.57060498593634   13.30656232517418
H        -4.07609821026763    8.98317274090277   13.70612964977841
H        -2.61214966903900    9.18333222313316   12.74735273200747
C        -5.83657515791002    9.33143386337078    8.53418884594054
H        -6.77769551120022    8.83516650225161    8.30529708779208
H        -5.18922217302480    9.24586020813914    7.66262703712571
H        -6.02754114029016   10.38446208792178    8.72342165641354
C        -3.59971680784397    3.15077385043184   11.79781864205197
C        -3.07221035383806    2.60135482990252   12.96619817448348
F        -2.90416254486511    3.38624572856940   14.05994266446455
C        -2.69037547569847    1.27268616986190   13.09949577401112
F        -2.20729963128635    0.82057423551268   14.27112608515599
C        -2.80880262179678    0.41028650516493   12.01921190168517
F        -2.44834215464803   -0.88060568713568   12.12626258182860
C        -3.30639598873581    0.92922044223070   10.83168024769921
F        -3.42600558757667    0.12123362210242    9.75719267518149
C        -3.68367640375905    2.25265447268931   10.72511115327556
H        -4.06128215681776    2.57198583583859    9.76460790399103
C        -3.99590309544523    6.22087255854654   15.47337900707119
H        -3.35956672669018    5.38169952025850   15.23842115274326
C        -3.67934765402602    7.05744035140291   16.52653868997341
H        -2.80147284699184    6.86191006793225   17.12424000831129
C        -4.48680582370297    8.14599338640591   16.81544720770253
H        -4.24427867701953    8.79982191346907   17.64009729615479
C        -5.60255715589344    8.39613202814699   16.03655435767604
H        -6.23091736108037    9.24921393780550   16.25025192783812
C        -5.92064712252721    7.55941660125404   14.97877624978825
H        -6.78604239931240    7.78754873856799   14.37584709753814
C        -5.12596003080044    6.45644140560029   14.69410304749858
C        -5.93817576862202    3.86453705088422   14.52109452749413
H        -6.65654603657479    4.23849865636420   15.25083169342802
H        -5.05261839349111    3.52143533913374   15.04715429667310
H        -6.37621339545808    3.02974751347866   13.98185584406900
C        -7.19117543639098    5.74522049319472   12.86533016714438
H        -7.83821400470078    5.86948254810696   13.73228796782142
H        -7.60297969012369    4.97203740150598   12.22124023303589
H        -7.14274762460352    6.67314543915048   12.29721431938367

