86
CSD_code = MADXEX | q = 1 | S = 0 | Stoichiometry = C34H48NOPRh(1+) | MND = 6
Rh        4.28553752228799    7.31842999998339   13.55431686245723
P         2.84231086178650    5.52088463173584   13.60855424202510
O         2.80744908542693    8.04121524389705   17.54324219667219
N         3.38461418683658    8.09792496413944   15.40024936461639
C         3.01453487619453    7.39261813728126   16.40669309797325
C         1.02990713472360    6.66358064917385   11.85943975661422
C         1.11950432482058    4.23114866068935   15.39644110303404
C         1.00374887129661    4.25065280247709   11.74783577501017
C         5.34306424662507    9.20662466482397   13.09220098016933
H         4.72705515776326   10.00645273879408   13.49556981569846
C        -1.01064691586041    3.13956570438386   15.05523638347758
H        -2.03750651330816    3.19231665961120   14.72828546668140
C         2.14190906270974    5.52849388169955   17.76869095659761
H         2.69575477448313    5.93373357498579   18.61094730145863
H         2.08222750932798    4.45176457405100   17.88372012137648
H         1.13225696461797    5.93110179400828   17.79826491601455
C         0.15518058201581    4.35583782328842   10.65315675990269
H        -0.20713913738362    3.44603579020135   10.19683612001379
C         1.93298322675049    5.48756582413956   15.25025967865596
H         1.20541061942943    6.30294426367512   15.13098369806332
C         1.50259870146554    5.42549852535872   12.34486211183318
C         1.62281445043404    3.03011180897771   15.89088133732776
H         2.64314323851197    2.95809398732209   16.23459065927426
C         3.14065227338561    9.41011815537060   17.33754329982606
H         4.03835440116281    9.63633013708910   17.92057679219448
H         2.31832122360027   10.02629622398371   17.69793206075531
C        -0.21071032116173    4.26483543273519   14.98356246816619
H        -0.62541030282534    5.18504812321675   14.59675969888579
C         4.68956225248919    6.99223330221491   11.47662611974527
H         3.89007833536838    6.38853053586720   11.04232851770696
C         1.36995051205995    7.96393239417733   12.51741326276403
H         0.95305681447618    7.99050220095928   13.52229004544389
H         0.94792423381248    8.79324899872837   11.95474874079948
H         2.46090833469438    8.11059865074512   12.59218944189263
C         5.66616064221036    6.32800753007087   12.21289870357042
H         5.55331287345669    5.25345470914650   12.31487900235571
C         2.83228849603344    5.89646537889886   16.44972280857570
C        -0.24944972638118    5.56919238978374   10.12214911765713
C         3.74052951347728    3.91866755192314   13.52246207961419
H         3.86684019506967    3.65192562377507   12.47540792882017
H         3.21552579578850    3.12080594698119   14.03762144540862
H         4.72418100860323    4.03631271742420   13.97262872398573
C         3.37539882948634    9.50781782879957   15.81868530848456
H         4.34950485412082    9.95922033010478   15.61507605325687
C         7.10022390590930    6.79408874033390   12.34022389064318
H         7.38058302291454    7.34351072702179   11.44230077520529
H         7.75061794253411    5.92005417843841   12.39675404515200
C         1.26541551423365    2.84610270785046   12.20771063391735
H         0.42801162749757    2.21771871570821   11.91241080420316
H         1.35819795866367    2.77769943677933   13.28317629871615
H         2.15617887796227    2.43364596737197   11.73640791931129
C         4.89178424022797    8.30711614515381   10.76760629015995
H         3.91212225973011    8.70151190200473   10.48753916164254
H         5.43670191200492    8.12183515835891    9.83693661277038
C         5.63817263787970    9.35210916084593   11.61764209561488
H         6.71344435594680    9.28299068812158   11.45710174329095
H         5.32880176605165   10.34731581536496   11.29478342556187
C         2.30339725859690   10.31840664765716   15.06052821951720
H         2.42102389956975   10.07301523468412   14.00009882967572
C         4.25875896767303    5.32834208545301   16.42934357157408
H         4.80358681831146    5.70558919161221   15.55609945840076
H         4.25352033673420    4.24390495334692   16.41873706699754
H         4.78637795414429    5.65324916797374   17.32469878216782
C         0.81980077938974    1.90428150376386   15.96937573817035
H         1.23050928264566    0.98590533024185   16.36080654799960
C         2.55347390476652   11.81340813473394   15.24327227761308
H         2.50822685712537   12.08938341451275   16.29416888707239
H         1.79749774271234   12.38269638933846   14.70954879019378
H         3.52984955879297   12.09883684579521   14.85793748757322
C         0.17827429719371    6.71671118243148   10.76760677522741
H        -0.16068687756757    7.67907183286061   10.41246351511539
C         0.87894169735235    9.95883883863691   15.48308435854314
H         0.75738497040955    8.88304135544057   15.59786944891641
H         0.17388248990043   10.30497459399739   14.73203350955448
H         0.61252004035995   10.43367902543510   16.42410263842779
C         6.10373972677065    8.46564614097961   13.97166255765837
H         6.08047485861903    8.73113001531812   15.02902567619971
C        -0.49729961375780    1.95217088228015   15.54830361713248
H        -1.11853896043641    1.07254815114537   15.60834716993839
C        -1.14153489265366    5.62261931169940    8.92548861613563
H        -0.71312107568049    5.04570244469827    8.10782964227854
H        -1.29132859263455    6.64609587529982    8.59306619397517
H        -2.11237181717035    5.18853083873132    9.16097091507892
C         7.31641954669700    7.65062695141752   13.59766506021488
H         7.56337908123320    6.99707320595736   14.43809549943266
H         8.16659266951673    8.32518024475558   13.45571512802822

