77
CSD_code = MADXIA | q = 0 | S = 0 | Stoichiometry = C29H37BF2N6PRh | MND = 6
Rh        1.79510732780745    7.57895589000535    8.42992476576534
H         2.90422761489423    8.43883017837770    7.92798279119710
P         0.31410260371060    8.47885183663505    6.93121594647385
N         0.21398285911986    6.26442002558075    9.29349062682252
N         0.50561752281157    4.95518069028261    9.31368855377866
N         2.39159965090284    6.03324809227390    7.02629513758609
N         2.15066417677230    4.77220307998997    7.42814953045612
N         3.07427271153724    6.60125120427410    9.62822395423101
N         2.93344068637345    5.26595052172775    9.72909844353636
B         1.89577131760546    4.46384493077437    8.91032360446166
H         2.00805605313813    3.30937836328733    9.11778629206073
C        -0.99724169627853    6.41532109718650    9.82389203965920
C        -1.50330149151492    5.16036776412564   10.17660643669002
H        -2.45506846447962    4.95081247297832   10.62152487029013
C        -0.51645286549489    4.25534748195924    9.83971723812484
C         2.92417562591029    5.98150818221839    5.80938672308398
C         2.97982251161642    4.64565357694789    5.39512027587416
H         3.34436307025343    4.27669971227264    4.45780979697850
C         2.48585390468377    3.90702284931883    6.45090520794266
C         4.07988453907340    6.97800748769469   10.41379470120072
C         4.59676688170166    5.84593142844941   11.04913899209045
H         5.41031325462795    5.81324265019217   11.74504329430939
C         3.84695826461286    4.78085073895860   10.59106592674732
C        -1.67513895289523    7.72192816802313   10.03841400915506
H        -1.01254584014436    8.53517482973160    9.75925492500520
H        -1.93270942349695    7.83210045807004   11.09124768368789
H        -2.59933027253066    7.77869408536822    9.46206513806842
C        -0.52228055484096    2.77799655398855   10.00202287429427
H         0.25820538243111    2.46144932114069   10.69222266269741
H        -0.34893320793558    2.28275276620189    9.04831533018751
H        -1.48529750653580    2.46135919672547   10.39419684430446
C         3.48018181221626    7.14898533851636    5.07760741497781
H         3.39734984861767    8.04687290367155    5.68295191867747
H         2.96428476382500    7.30537719278477    4.13233930998643
H         4.53189598391368    6.96314683341072    4.86061110019522
C         2.32164925315534    2.43305485897305    6.55247526095474
H         1.30882704312095    2.17768557414599    6.85850560040290
H         3.01081115386501    2.01618342358076    7.28562773433385
H         2.52515535539713    1.97897866581430    5.58613545721917
C         4.56309455534355    8.37566590917433   10.56926441603126
H         4.36480927589094    8.94856099045102    9.66688837136482
H         5.63196664471994    8.37219691799621   10.77129046582227
H         4.05561886505439    8.86396232227613   11.40086467147863
C         3.98388500788507    3.34476999864613   10.95084844555566
H         3.05829961532196    2.96160010763640   11.37696343410768
H         4.78003225642926    3.23278756436463   11.68209914298282
H         4.22634357640359    2.74709528389209   10.07375869300067
C         1.48325102668315    8.92982084555447    9.90625747792561
C         1.56732981676685   10.31096622855079    9.74792476213265
F         1.84885111601924   10.83403537872011    8.52269777680089
C         1.38111588680112   11.20702631271329   10.78994967812481
F         1.45952610690771   12.53826456414626   10.55404910756179
C         1.11760308690604   10.75799125542264   12.06783032532860
H         0.97765194925496   11.46629210141846   12.86820591398729
C         1.05166748534694    9.39037063623798   12.27063983060368
H         0.85809458522152    9.01021539464965   13.26334731418622
C         1.23234428779160    8.50905618584930   11.22002079732656
H         1.16910364979945    7.45098066193009   11.43744829702769
C         1.73341738029174   10.16812652078845    5.27073275101577
H         2.02797360965521   10.62431420520660    6.20286371837674
C         2.18256618573025   10.68894205400781    4.07221639989619
H         2.81705083705434   11.56292594626344    4.06925283395137
C         1.82059813428812   10.09089467500092    2.87580017898257
H         2.16713988291627   10.49723534585363    1.93691047795854
C         1.01810258992693    8.96405138344914    2.89030518972779
H         0.73998724964353    8.48623851935526    1.96127314370177
C         0.56849174477542    8.43944177428038    4.09138752832236
H        -0.04033109050402    7.54859358898560    4.07446334157274
C         0.91251574950278    9.04337293112709    5.29408232316343
C        -0.79948498499120    9.92300126375778    7.22053483067991
H        -1.42618292112141   10.06237239112051    6.33943952040786
H        -0.20876140672434   10.82059072216919    7.37517119145123
H        -1.43054491746519    9.76100613910895    8.08961571257679
C        -0.95761138244371    7.23736723202968    6.44927102501903
H        -1.63093750152995    7.63881393781428    5.69350597945319
H        -1.53289325408896    6.96951544648073    7.33207162227790
H        -0.46802559703955    6.33901683787529    6.07597489662491

