104
CSD_code = MADYIB | q = 1 | S = 0 | Stoichiometry = C49H51IrN2P(1+) | MND = 6
Ir        8.36044339151039   11.39987327770234   10.69177726961080
P         6.39041332754070   11.20562405904064   11.96796423051394
N         9.29885356679222    8.97670758180440   12.52745679001427
N         9.02004178904827    8.51260395214912   10.44677551028904
C         9.01313712676884    9.54700082002264   11.32948083399819
C         9.45897853171108    7.62103586843157   12.39248248622020
H         9.69183992079173    6.99432446179447   13.22749277563561
C         9.28614511022885    7.33009021115541   11.08569626472469
H         9.32783659769953    6.39814770696043   10.56157944497060
C         9.54613502020101    9.62873523820308   13.77071432757343
C         8.63633088454847    9.49292818238960   14.82081095488389
C         8.90233796722013   10.13370056617644   16.02111945623490
H         8.19610697031550   10.03236490037616   16.83143958872274
C        10.05184306780489   10.88639119146923   16.20674824537386
C        10.97962759983097   10.93279683368754   15.17679165751467
H        11.91261088700087   11.45598139452844   15.32634825145152
C        10.76091397541675   10.29034315748574   13.96706319249292
C         7.43156928032095    8.61072106212153   14.71715478238410
H         7.64144328917527    7.65793568064280   15.20515385494970
H         7.15755561540806    8.41529008661761   13.68523755918105
H         6.58526959820529    9.06580693707148   15.22573239108293
C        10.31919625790977   11.56882719343978   17.51023958547186
H        10.92251944650436   12.46154441190260   17.36686947273427
H        10.86737991734187   10.89865778680063   18.17245380431833
H         9.38934572941103   11.83973298012723   18.00304818465544
C        11.88223104396252   10.21879348480205   12.97381201632205
H        12.59452178168719    9.46239292187078   13.30708428336928
H        12.41667865858338   11.16426646370663   12.92104437356441
H        11.54009188269679    9.94066725673374   11.98125154758706
C         8.97586947213261    8.60365317597083    9.02436681195509
C        10.17471309178509    8.48260440416091    8.31540972694751
C        10.14216439821246    8.59188633435725    6.93300430971440
H        11.06708663409411    8.51095952561304    6.38142587854191
C         8.95489498818971    8.79541665140597    6.24488304648943
C         7.77437597623109    8.86384139458913    6.97169944824101
H         6.83825256589330    8.99166051699063    6.44777009031097
C         7.76348972221807    8.76129206360957    8.35421843260703
C        11.48118403699296    8.21929783286075    9.00455548092805
H        11.51877971330073    8.65630288987698   10.00004410437667
H        12.30560796008450    8.61710594611848    8.41817073905573
H        11.63649843223243    7.14499834472805    9.10644891904019
C         8.94056743733804    8.90098209062603    4.75343436930629
H         8.76744419720554    7.91760564680528    4.31615145408413
H         9.89129717529442    9.27109042324295    4.37870036660131
H         8.14406491914104    9.56013958611670    4.41678466776384
C         6.47316899068624    8.80898490912272    9.10738143558467
H         6.41307618641769    7.99943693203425    9.83279624253966
H         5.63132539633866    8.73414808020575    8.42450872377649
H         6.39636268913142    9.75046721879315    9.65529911021942
C        10.08383876246726   11.71608270052962    9.38543229593304
H        10.61757545331427   10.78371705896771    9.24323848396276
C        10.29876839904844   12.38100566399676   10.58826126025743
H        10.97514798406279   11.92036694597892   11.29967030225517
C        10.17298135615870   13.86783813124947   10.80038895787673
H        11.05568949005416   14.35775974265890   10.37715579509155
H        10.18696938735338   14.06228094050537   11.87511566533069
C         8.89609621222881   14.47088863064261   10.19451077547750
H         8.62518560910231   15.36279951671337   10.76158500527011
H         9.07185883385286   14.78532853695225    9.16581279124043
C         7.74433603525343   13.49850140385452   10.22807542945578
H         6.95119137462462   13.77591673441147   10.91683076373091
C         7.42012855072715   12.64930033506587    9.19306724681168
H         6.38288904649280   12.32048546204973    9.11874194663468
C         8.18323385382198   12.50399078938679    7.90306709840237
H         7.94379624494904   13.34890319797702    7.24965523605396
H         7.83200168627013   11.59966260398115    7.40175418901649
C         9.70716720787456   12.40034146154867    8.09227573765175
H        10.11564093319681   11.82526490436223    7.25983058015880
H        10.16679359469989   13.38851437114514    8.05970112811545
C         5.55118207690685    9.68079972485461   12.22246462671347
C         4.95516120275335    8.62660087262025   12.25466876258470
C         4.26498301187291    7.39862934283842   12.34177194845892
C         3.53214395132853    6.93611935832365   11.24684629047509
H         3.49740941561102    7.52504711159233   10.34191755702723
C         2.85490374051626    5.73543876640202   11.33073101834571
H         2.28696696885742    5.38064245511813   10.48404842274939
C         2.90049356745582    4.98855716278333   12.49769066909955
H         2.36773481567696    4.05222700242389   12.55945428124854
C         3.62728634400998    5.44501247832008   13.58634602868756
H         3.66023060354684    4.86394668242717   14.49552749910235
C         4.30914702971877    6.64410842333050   13.51553889575749
H         4.87417202330300    7.00745671482414   14.36097040948248
C         4.91883892240220   12.17851558915474   11.46292062407046
C         4.06027406886755   11.66311523313169   10.49669262157190
H         4.24035653122698   10.67706925611923   10.09144887052006
C         2.96898320025074   12.39725398284331   10.07066137112396
H         2.30405199877442   11.98751294116202    9.32539352250748
C         2.72845883593173   13.65459431725068   10.60032875127947
H         1.87634487405365   14.22694345101381   10.26798279423420
C         3.58011532359871   14.17296097674668   11.56137334536592
H         3.39303272808865   15.15000808358303   11.98050455631339
C         4.67316061030312   13.44155712066684   11.99099851855795
H         5.32809916429285   13.84958980616073   12.74905012355431
C         6.61772919696410   11.81432443895657   13.66791441082354
C         5.64159662535186   11.61837360427726   14.63872265523114
H         4.75597160652764   11.04486459325420   14.40070037495575
C         5.80951129072477   12.16504903513319   15.89742420505745
H         5.05355903855079   12.01436180632852   16.65362484464973
C         6.93894405685310   12.91593541726995   16.18559497263168
H         7.05682497488031   13.35276034303198   17.16566861388031
C         7.91239783214112   13.10989088068967   15.21942081841322
H         8.79107598966367   13.69399125436630   15.44623401609645
C         7.75484439677718   12.55500682651013   13.96290950798660
H         8.51000174815525   12.68382617801200   13.19810688883278

