84
CSD_code = MAFFOP | q = 0 | S = 0 | Stoichiometry = C37H36BClN6P2Ru | MND = 6
Ru       -0.54543745821760    0.15556554214089   13.68493287784618
P        -0.20489291328851    1.70422282246663   15.36990047317183
P         0.46120041395705    1.31795413357546   11.94566399725002
Cl        1.38395364217512   -1.05832017244031   14.35321116981495
B        -3.23077803538895   -1.44578882847923   13.21018585661905
N        -1.54778012140460   -1.04313376986191   15.00554218970792
N        -2.71596038592223   -1.58225328068150   14.65371337967839
N        -0.87061156174016   -1.45455491050949   12.45394470932067
N        -2.09305207723094   -1.97216156018077   12.33082340026424
N        -2.38475507612688    0.90335250737531   13.14412429712674
N        -3.39102579368966    0.05379903972215   12.93605854196392
C        -1.26138052361878   -1.44403184284484   16.23261406624435
H        -0.34981028865422   -1.14996066630900   16.71898957886947
C        -2.28370641433839   -2.26809407710869   16.70276744831746
H        -2.34634636332489   -2.74646871797668   17.65811609846506
C        -3.18647870159710   -2.32992195970984   15.66434619107744
H        -4.11724179432024   -2.85342057685536   15.57836433860462
C        -0.03095050103078   -2.21465019693623   11.77116595183564
H         1.02123943387918   -2.00155153560911   11.74015914241192
C        -0.73352376445497   -3.25944329209438   11.17072704100049
H        -0.33707033492091   -4.03715248149143   10.55152758478045
C        -2.04139609550653   -3.06795551953058   11.55686381493254
H        -2.92501984704956   -3.63330665085601   11.33895892897188
C        -2.84700091845612    2.13247051357661   12.95380621430276
H        -2.22300396449009    2.99381219697701   13.09482769152922
C        -4.19495760390233    2.07700454930983   12.59871784343602
H        -4.84406644117202    2.89879033082381   12.37753360106350
C        -4.49963908182294    0.73336355731443   12.60143583298612
H        -5.41899846635790    0.22526417379080   12.39326023841367
C         1.37174064335418    1.52988486807420   16.25444383645263
H         1.65723772752087    0.48845728381816   16.36923150779119
C         2.16064220851707    2.49819732553924   16.69350406166228
H         1.92701372839954    3.54424946827462   16.57291741526026
H         3.08794719525002    2.27493141715062   17.19813345238378
C        -0.27088556282631    3.51114911441615   15.09452452961833
C         0.77792308056608    4.08329349628495   14.37572921258603
H         1.58557814024563    3.44966214303267   14.03104429426671
C         0.78947535757434    5.43983614851279   14.10830218546311
H         1.61175883224073    5.87127210382591   13.55560975961756
C        -0.25635165002846    6.23939959270763   14.54275297692927
H        -0.25178648365854    7.29875029858202   14.33239184803157
C        -1.30758550360729    5.67539423578760   15.24568953458839
H        -2.12530539763556    6.29563841948541   15.58327624371879
C        -1.31726784773414    4.31867264154346   15.52352865568714
H        -2.13915798465893    3.89077659459468   16.07918923285515
C        -1.38658957967825    1.53198756308097   16.76224421504190
C        -2.74365355757410    1.41547271449086   16.46991527313242
H        -3.07259430001937    1.46143597254201   15.44117735260664
C        -3.67031762804804    1.24020028252087   17.47966277401920
H        -4.71925513078967    1.14727997343109   17.23711242351113
C        -3.25236283350310    1.17559425793601   18.79894241243380
H        -3.97381356551802    1.02804486902314   19.58896644562033
C        -1.90704807005570    1.29930489883150   19.09966509169925
H        -1.57698456077547    1.25222786358146   20.12732095194793
C        -0.97765936550237    1.47818247762919   18.08960501815764
H         0.07101492970751    1.56950074199185   18.33259351390632
C        -0.25606364250651    2.91588640409923   11.43374916037375
H        -0.13746212700543    3.67863932523847   12.19684478689008
C        -0.83666932781566    3.22298216006349   10.28516121406559
H        -0.96912815310586    2.50933532428271    9.48857006949839
H        -1.21084786074768    4.21767956793785   10.09640896082654
C         2.20389532959935    1.87612468758150   11.95612967876331
C         2.68488431636220    2.68904024332795   10.93096041194161
H         2.03287764954852    2.96215962127366   10.11242723320495
C         3.99092323572433    3.13895206710716   10.95986713147395
H         4.36049566472723    3.76725953051993   10.16192028647666
C         4.82581251983371    2.78750063358032   12.01017884766599
H         5.84523690300974    3.14498635740780   12.02990442486931
C         4.35228842132160    1.97751971045879   13.02775268142492
H         5.00075187685528    1.69636245494830   13.84425436279996
C         3.04467286049731    1.52136727821220   13.00396818128009
H         2.67335018826181    0.87384913062999   13.78717111311028
C         0.35892694213007    0.39983148490878   10.37235050224342
C         1.47085422498945   -0.07327349033597    9.68795988524660
H         2.46318508192555    0.13866559610972   10.06025286038199
C         1.30771821439933   -0.83049804704333    8.54016913773135
H         2.17677885488095   -1.19831930491597    8.01418973069154
C         0.03935358661665   -1.12505972599893    8.07104752121694
H        -0.08306212282100   -1.71981732265892    7.17784521777920
C        -1.07527379420362   -0.66584248666467    8.75547051932793
H        -2.06703930976570   -0.90427420662048    8.39855389401252
C        -0.91622197519151    0.08691280226592    9.90237562170925
H        -1.78358777899710    0.42889791050428   10.45514600925891
H        -4.24167156239012   -2.03309380048413   13.03911383673813

