35
CSD_code = MAFFAB | q = 1 | S = 0 | Stoichiometry = C13H17ClN3Ru(1+) | MND = 8
Ru        5.74744505336955   12.00628796212875    8.71508535371226
Cl        3.82995621482073   12.79041856804709    7.56937335575902
N         6.66952624597111   13.29742928164768    7.55362303060248
N         6.00198423751859   10.73301458746952    7.25932386110561
N         4.47510457474637   10.69352927535507    9.43880232448498
C         5.30612051332290   12.82202263942783   10.74438507981999
H         4.25487287659682   12.92979197372319   10.98586370373400
C         6.08048741978790   13.74081000971924   10.07854401099046
H         5.74806245244652   14.70144648619502    9.70203875503212
C         7.53500322230319   13.41402143237272   10.42735265111750
H         8.26930526707391   14.18979336037353   10.22930975450922
C         7.37245798694485   12.92822511459628   11.87716876823614
H         8.27106834711094   12.45903245973952   12.27486455169654
H         7.02882287222004   13.70860177694018   12.55442369870164
C         6.27318506647239   11.91689802889569   11.51223015314249
H         5.84753553181505   11.31651222749233   12.31135944174390
C         6.95696737580977   11.15645743730016   10.37362510534775
H         7.09855579401761   10.08314668224612   10.37647721886141
C         7.73542760499368   12.08019372573453    9.70418834629700
H         8.59779670626981   11.86231825008613    9.08702836663628
C         6.86567284879792   14.06944441519106    6.72574888377354
C         7.13712727624318   15.04384092140000    5.72419818564253
H         7.90066903722022   14.67630257803713    5.03883017771807
H         7.48479929319374   15.96647510702240    6.18953040522846
H         6.22065814696237   15.24699521261880    5.16893827065019
C         5.92998498343267   10.09450916355586    6.30451523276889
C         5.86403316618552    9.28606178602497    5.13334156700734
H         6.73075878689063    9.47936045222758    4.50108454147906
H         4.95518470002251    9.52392627660149    4.57939544655405
H         5.85253490189552    8.23155613692526    5.40954241861952
C         3.51291748271819   10.08822326233345    9.60555769856306
C         2.33546464072349    9.32703032288962    9.85162762909646
H         1.62411065451796    9.49971230773863    9.04329739498732
H         1.88509198194497    9.64026891140188   10.79389283005822
H         2.57610673563746    8.26514186654814    9.90243178632226

