121
CSD_code = MAFGEH | q = 1 | S = 0 | Stoichiometry = C60H56AgN4(1+) | MND = 4
Ag        8.42147531924556    5.64917082583317    4.02649110785021
N         7.10972859871981    3.80286538764639    3.57788046869128
C         7.70483985722423    2.69274728121193    3.83705756563271
C         7.28374477572048    1.30069943094778    3.72373319210600
C         6.12549595997828    0.66028406824926    3.34818588088080
H         5.23731294941585    1.20633418115991    3.06886745513153
C         6.11449294281768   -0.74596878257615    3.32019860509666
H         5.20070301685495   -1.24111505283362    3.02707956075740
C         7.20885904805169   -1.50509300447099    3.65800298525291
H         7.15095780820485   -2.58294979572304    3.63803632977464
C         8.42206277102662   -0.88134693782510    4.02642798570064
C         8.42201491379050    0.51663720335944    4.02648498282129
C         5.74523457205480    3.92710758495706    3.35390841910042
C         4.78765916253517    3.50275556019822    4.28807239973887
C         3.44741545123741    3.73002647481108    4.01181539916357
H         2.71199781564019    3.40024510075566    4.73142868588826
C         3.02726228274416    4.35099483373274    2.84675208598400
C         3.99449689118842    4.80176265245406    1.95492123863211
H         3.68517964900293    5.30558228928965    1.05045875107151
C         5.34048493748028    4.61816905784814    2.19785889817827
C         5.16324371272653    2.86530376519119    5.59180191302315
H         5.06458916424245    1.78013579434346    5.53431141877647
H         4.50010647202416    3.21909669654023    6.37794239615909
H         6.19006785862534    3.09198440265972    5.87185131701238
C         1.57476909458313    4.52948559122690    2.53896179438045
H         1.27030900131759    3.82634912493385    1.76333017580079
H         1.38113916178900    5.53330756050961    2.16690842665618
H         0.96244921941974    4.35185299684324    3.41845612733560
C         6.37699861480120    5.11253709789381    1.23835311936402
H         7.12432062769773    5.71330912943548    1.77924252306560
H         5.92539224729104    5.72369735783860    0.46201427050047
H         6.89845907545889    4.28002825201118    0.76627459423501
N         9.73386448503621    3.80306421509510    4.47459430177703
N         7.10946515426314    7.49550063821981    4.47468172736874
N         9.73370848454060    7.49521424779033    3.57832499652693
C         9.13880507124993    2.69284813502461    4.21563761206557
C         7.70462848940821    8.60558979444927    4.21545017601284
C         9.13868822711492    8.60543495919396    3.83720638605597
C         9.56021186038057    1.30087269118690    4.32883539951966
C         7.28364073268568    9.99767801760096    4.32889175338158
C         9.56004958171466    9.99737622602656    3.72358136795656
C        10.71870394102605    0.66063274849176    4.70404510391477
C         6.12546676834627   10.63817870838885    4.70456891181658
C        10.71851371982294   10.63752650411578    3.34816221658934
H        11.60659908765824    1.20690104637436    4.98393925040433
H         5.23717117799388   10.09220595999843    4.98364914090995
H        11.60644122308055   10.09117872034707    3.06851163962818
C        10.72982173908939   -0.74562158550727    4.73224608085728
C         6.11453593823066   12.04444174150074    4.73248050792322
C        10.73003361085368   12.04379116764629    3.32105262850468
H        11.64365625348777   -1.24063118406735    5.02548827306042
H         5.20069835723346   12.53966357832117    5.02526160275040
H        11.64353781347975   12.53872896923405    3.02647835569319
C         9.63544735114354   -1.50484192148701    4.39481163910513
C         7.20884564968473   12.80349670161652    4.39426893589094
C         9.63566894440607   12.80307875618999    3.65833500218750
H         9.69354536571927   -2.58270031434986    4.41470657593803
H         7.15107851525304   13.88135854943422    4.41446686511155
H         9.69357609654998   13.88092834813091    3.63750457596716
C         8.42204896560984   12.17966377199862    4.02603304840656
C         8.42193386292288   10.78167634792652    4.02601296777645
C        11.09837501171065    3.92736597985547    4.69854873688526
C         5.74496960759914    7.37129847328498    4.69880744936526
C        11.09816962504080    7.37092425710761    3.35416770185654
C        12.05600735442990    3.50278274570650    3.76449485724938
C         4.78732993324281    7.79582840205584    3.76474389433841
C        12.05580007802785    7.79556424707680    4.28816036573543
C        13.39625627553976    3.72995066179757    4.04080833328596
C         3.44708630685711    7.56864193854980    4.04107469626267
C        13.39603310910074    7.56842094462486    4.01181598470574
H        14.13157480747506    3.40128842245758    3.32065099091096
H         2.71168514161214    7.89784928801922    3.32122640989642
H        14.13135706544374    7.89712234885955    4.73193141338292
C        13.81634884531222    4.35108911285743    5.20579967735505
C         3.02696112724091    6.94742386596863    5.20604153871902
C        13.81611296795427    6.94707381119409    2.84690049387746
C        12.84904312958601    4.80250441903395    6.09727400545259
C         3.99422831404701    6.49637381352861    6.09770687913314
C        12.84879543969521    6.49564650751631    1.95544439963811
H        13.15840713711289    5.30494523218165    7.00238334337976
H         3.68493376301086    5.99297243166694    7.00239258410621
H        13.15811084301132    5.99304764568817    1.05038382510404
C        11.50308102692303    4.61891081628173    5.85436940257914
C         5.34022204240959    6.68006011356421    5.85478254804073
C        11.50282442710294    6.67933058798757    2.19835459507154
C        11.68055696145948    2.86530938922122    2.46075987117275
C         5.16285618064096    8.43309483142296    2.46093310320531
C        11.68024698455860    8.43271430618876    5.59202486478026
H        11.77934990477459    1.78019694512201    2.51854675283770
H         5.06431860969836    9.51824924569410    2.51850140884427
H        11.77907543658490    9.51781929157923    5.53442198015939
H        12.34360047848149    3.21889044481511    1.67444992064003
H         4.49961976356376    8.07939612616424    1.67483202692116
H        12.34326353954465    8.07893295097412    6.37828630193622
H        10.65370352720686    3.09173925019499    2.18070894456461
H         6.18964159758008    8.20633009587046    2.18084109876729
H        10.65333960911332    8.20628202163810    5.87196268510729
C        15.26880675260331    4.52971526088217    5.51395328507517
C         1.57446322409321    6.76886172310719    5.51380407310554
C        15.26856921840902    6.76854874272001    2.53883398008785
H        15.57314427076661    3.82678833824160    6.28964143173580
H         1.26997170088090    7.47195217209612    6.28948655966042
H        15.57290371337736    7.47152772248640    1.76309896529130
H        15.46250664403396    5.53332516040393    5.88610681842865
H         1.38079562631282    5.76499682900462    5.88577430774182
H        15.46225105919732    5.76481692660376    2.16678437588742
H        15.88162702539046    4.35221000501434    4.63496872336738
H         0.96217822558975    6.94655316519744    4.63428780894673
H        15.88120004534644    6.94617615563847    3.41801588690981
C        10.46673158878172    5.11278838817903    6.81423065809894
C         6.37668358297479    6.18593901470904    6.81446906176342
C        10.46642961759321    6.18539853485320    1.23853871361953
H         9.71928338903558    5.71331821675981    6.27325842010807
H         7.12403027706836    5.58515352561421    6.27361158431505
H         9.71895853239868    5.58491341365037    1.77948095911274
H        10.91838509875036    5.72441977984736    7.59014414430664
H         5.92511181997690    5.57463925018796    7.59069056397382
H        10.91805407749855    5.57389754179968    0.46247665538752
H         9.94550973903356    4.28033431296851    7.28677514893200
H         6.89809844065053    7.01844530402394    7.28667443233589
H         9.94517091649547    7.01787788162599    0.76612323960724

