121
CSD_code = MAFGAD | q = 1 | S = 0 | Stoichiometry = C60H56CuN4(1+) | MND = 4
Cu        8.44379563974972    5.54239441261602    4.04322982120830
N         9.68205224497664    7.00955344095742    3.46256847864331
C         9.12499191537407    8.13649819684221    3.77390551929225
C         9.53345532653353    9.52382139524597    3.59709652934527
C        10.63272442711155   10.16402905032095    3.07330054231198
H        11.47906423126457    9.61782686771423    2.68513501132356
C        10.63879650620462   11.57034266802494    3.04078247131850
H        11.50627424922916   12.06472563561664    2.62955273582853
C         9.59853732908035   12.33058695198483    3.51822978636889
H         9.65369474318113   13.40834829239996    3.48904790630556
C         8.44386962279638   11.70743691275232    4.04334867089516
C         8.44382230529064   10.31023262883468    4.04327843351930
C        11.03190757518148    6.91184008640823    3.13819085944487
C        12.03845346341516    7.38014054331513    3.99913431136470
C        13.36247959931585    7.17375121546876    3.64186049524406
H        14.13521796423584    7.52324179924653    4.31080950788597
C        13.72203264140839    6.55105623751219    2.45736401011388
C        12.71019101241595    6.10083560891711    1.61692437693330
H        12.97057132529576    5.62216879840897    0.68361309580532
C        11.37787118358942    6.25180507617504    1.94727887347845
C        11.75009915845762    8.07008601973095    5.29727240791629
H        11.86177591969108    9.14978817022763    5.18510756870505
H        12.45635217876776    7.73780966820355    6.05415994126330
H        10.74112669566824    7.87489526972998    5.65085635911688
C        15.15860003732029    6.38040300208025    2.07838383036795
H        15.44336492461135    7.13724018139262    1.34715842641666
H        15.32684410827074    5.40588340945875    1.62500977326481
H        15.80556822129808    6.48710663373118    2.94487550893528
C        10.29513017753903    5.76872261744364    1.03509291876948
H         9.56595637463867    5.18859441978406    1.60386009377740
H        10.70470788726110    5.15394272711203    0.23827060006487
H         9.76871465605014    6.61088162131843    0.58554925747454
N         7.20546846782842    7.00958123959963    4.62385814649254
N         7.20552417218046    4.07521114288073    3.46260182443241
N         9.68208621183974    4.07524074364438    4.62391907589782
C         7.76254940229378    8.13651278824027    4.31251292114900
C         7.76259731618138    2.94828036866815    3.77396191849422
C         9.12503297301744    2.94829455002333    4.31258218204671
C         7.35414029236182    9.52384674914675    4.48938135965501
C         7.35415830637685    1.56094792226641    3.59716270843886
C         9.53348324785178    1.56097151336298    4.48943052628093
C         6.25491472667313   10.16407707737728    5.01324688970052
C         6.25491437471596    0.92071651097710    3.07333825792120
C        10.63275057987836    0.92076056433049    5.01323084329798
H         5.40855181484258    9.61789292384943    5.40138858487193
H         5.40858948692844    1.46690171925269    2.68511710572366
H        11.47912139664725    1.46695392060326    5.40133574275890
C         6.24895582793381   11.57038725398490    5.04594465632818
C         6.24895146687049   -0.48559351353783    3.04064749037968
C        10.63877828070855   -0.48555272915024    5.04584116388635
H         5.38151679050253   12.06478924193961    5.45723114313583
H         5.38147662415949   -0.97999462609595    2.62943971042294
H        11.50627274617352   -0.97993485446563    5.45703479282692
C         7.28926907128598   12.33061097632861    4.56858891228991
C         7.28924514249130   -1.24581669845928    3.51804979652758
C         9.59848480351286   -1.24579619039820    4.56847095265048
H         7.23421030425467   13.40837326596761    4.59795089223136
H         7.23411294632754   -2.32357943180227    3.48885459133151
H         9.65361586380231   -2.32355831984217    4.59770604714789
C         8.44385033843566   -0.62264238241829    4.04327836409419
C         8.44383133057774    0.77456155084132    4.04328947097400
C         5.85561463771011    6.91188374145061    4.94823352888971
C         5.85566870403228    4.17290496070088    3.13822828311236
C        11.03194016378618    4.17296390032257    4.94828822383981
C         4.84907727191051    7.38020988818583    4.08728848376829
C         4.84913223653157    3.70458377339494    3.99917668894956
C        12.03848360567090    3.70465369839915    4.08734818971019
C         3.52504607419068    7.17386004514921    4.44456239291491
C         3.52509970301772    3.91093143465037    3.64190183368724
C        13.36251223941709    3.91103880822066    4.44462127621589
H         2.75231484256161    7.52340381627811    3.77563101675190
H         2.75236966176314    3.56138421322992    4.31083367430597
H        14.13525043318414    3.56152858189339    3.77568007845712
C         3.16547617086405    6.55114986972522    5.62904885935612
C         3.16552774533613    4.53363311297916    2.45741157090114
C        13.72206491653174    4.53375424684263    5.62910685443887
C         4.17730570446183    6.10087224991671    6.46947245881795
C         4.17735613448310    4.98390419057544    1.61698429642917
C        12.71022426724897    4.98400176773049    6.46953471131230
H         3.91691718891781    5.62219334053052    7.40277219476384
H         3.91696588687638    5.46257203703192    0.68368003496228
H        12.97061050040892    5.46269490798653    7.40283207428839
C         5.50963159865087    6.25183374471615    6.13913241624812
C         5.50968224166233    4.83294813118299    1.94732583580225
C        11.37790436227307    4.83302532609466    6.13918656018878
C         5.13746308366348    8.07013049065554    2.78914387873819
C         5.13751386552624    3.01466664048436    5.29732437163094
C        11.75011896256795    3.01472057175756    2.78920675196616
H         5.02591353309019    9.14984638382528    2.90130716960249
H         5.02595430395620    1.93495097172352    5.18516654819338
H        11.86179936681316    1.93501769529777    2.90135981956653
H         4.43114844765744    7.73793139759224    2.03228047116595
H         4.43119951448307    3.34687341804571    6.05418423088447
H        12.45636619983459    3.34700887899974    2.03231886599401
H         6.14640104948142    7.87481819182590    2.43552815307811
H         6.14645273445846    3.20997069940579    5.65094288181215
H        10.74114314642756    3.20991520307316    2.43563145382919
C         1.72890237951176    6.38055026295104    6.00802755584570
C         1.72895477325589    4.70423250721401    2.07843154121865
C        15.15863202330945    4.70440144436598    6.00809320952372
H         1.44416019481786    7.13742326216563    6.73922790479697
H         1.44421241502418    3.94736218412247    1.34722934754821
H        15.44335037487837    3.94766598600084    6.73943999549236
H         1.56062935771915    5.40604892466465    6.46143317009147
H         1.56068744588248    5.67873438435472    1.62502612129691
H        15.32690856968075    5.67898071475878    6.46132470518832
H         1.08194134668298    6.48724835712309    5.14152689879608
H         1.08199123037978    4.59753657517062    2.94493093242255
H        15.80561578568730    4.59754123329844    5.14163321003788
C         6.59236047853229    5.76877199533964    7.05134144969085
C         6.59240411490202    5.31602360575241    1.03511571371314
C        10.29515913666036    5.31612522180370    7.05136065686446
H         7.32171388336550    5.18889943228129    6.48254544902424
H         7.32176148631318    5.89588433650615    1.60391869748378
H         9.56601532731548    5.89628735898122    6.48258729476734
H         6.18281016434610    5.15376984066574    7.84800572886323
H         6.18284638197324    5.93104443259370    0.23846837006651
H        10.70473644194751    5.93087788760812    7.84820583470377
H         7.11855760894243    6.61094978066237    7.50110714043060
H         7.11859550195193    4.47385450426506    0.58532584577325
H         9.76870511990757    4.47397259696854    7.50087289429578

