84
CSD_code = MAFGEG | q = 1 | S = 0 | Stoichiometry = C38H36ClN6P2Ru(1+) | MND = 6
Ru        5.09213606476878    7.38835495684150    9.91909484044282
P         3.46514646242825    8.71979620357397   10.97002829123837
P         5.21061774884742    8.86512861981798    8.10428934395740
Cl        3.49695561100677    5.98466917911755    8.91535541601478
N         6.46667283139690    6.13408925357520    9.07194654182405
N         7.45302279152738    5.64260239928566    9.83979803784499
N         5.05249322463883    5.90591598276492   11.35755856227306
N         6.21910145273757    5.42192766425014   11.81948250881125
N         6.68811908494674    8.20162698771717   10.94927796690222
N         7.56990341643441    7.33206029996088   11.48265372547877
C         6.62748516031294    5.62203774391983    7.86996038378075
H         5.95344700056147    5.86086089533291    7.06991599781121
C         7.74581998044817    4.77521733568530    7.85160614567663
H         8.12117136097535    4.22276177482134    7.01647646990475
C         8.24722919921497    4.80329055573395    9.12507132209324
H         9.08699149373264    4.30839158723243    9.56813458332013
C         4.10283400639386    5.12386232015759   11.82769381979510
H         3.07155203702374    5.28490544878648   11.58068062970664
C         4.66214378329617    4.10661407077645   12.61763292825846
H         4.13535202142666    3.33052892972297   13.13116099390521
C         6.01359473300401    4.31535019588711   12.58248737103904
H         6.82681746179220    3.78543556490149   13.03477954323454
C         7.13019320483416    9.40737913576038   11.26396215693801
H         6.62401260420520   10.28712759658685   10.92343517686295
C         8.31090823838882    9.32277396782266   12.01404518960820
H         8.88605486245479   10.13505439622314   12.40518944803148
C         8.56868468594290    7.98423634391612   12.13469925723283
H         9.36230851301524    7.45677480117038   12.62235159916569
C         7.44825003185181    5.91613239892584   11.25693140582726
H         8.29658741642519    5.40415636856493   11.72797655569930
C         4.04044987654866   10.17651261327280   11.89610819421696
H         4.60133369434623   10.87550989881598   11.28554233981702
C         3.81737923254152   10.46285202084063   13.16898420033595
H         3.25049482653257    9.81908834878685   13.82028200481139
H         4.19428373133991   11.37135876758952   13.61215411599079
C         2.51943737989741    7.83417282349528   12.24593024764950
C         3.21858307251350    7.40199474502179   13.37409840466433
H         4.27736862203516    7.62282105523038   13.45913176737201
C         2.56797674072933    6.70602175946402   14.37465668596258
H         3.11135207398080    6.38370084974875   15.25075759923650
C         1.21680673371506    6.42042180253745   14.24967495319773
H         0.70774183074572    5.87500266327881   15.02933553552226
C         0.52243103586493    6.83435509309558   13.12551230915902
H        -0.52857412772416    6.60922171900810   13.02743230956768
C         1.16754862432241    7.54041671766208   12.12342138830493
H         0.62219702462917    7.86163881238064   11.24833730408682
C         2.17622763849214    9.47867984376952    9.92576114590932
C         1.79170304491418   10.80896809000761   10.07729822646215
H         2.25360016407768   11.42944857810405   10.83192165079055
C         0.80228305505477   11.33996352882594    9.26908027962070
H         0.51267551164849   12.37311750151400    9.39075140466553
C         0.17853695329863   10.55130710072684    8.31654252177659
H        -0.59603621563011   10.97032128445253    7.69252746725914
C         0.54609638282740    9.22398959164219    8.17321793621655
H         0.05849592455459    8.60105384813588    7.43907209930623
C         1.54435199402051    8.68921492956379    8.96689528248031
H         1.83912776772434    7.65712432861549    8.84427528356260
C         5.33134337826683   10.60853722978255    8.58153360609100
H         4.42749630913716   10.96286144592099    9.07035540762203
C         6.37003418698921   11.40944325640015    8.40146396577750
H         7.27172556839925   11.07814595448585    7.91254203168127
H         6.35746790340632   12.43770561834445    8.72848937722556
C         3.88235267984814    8.96374122705803    6.86091240175868
C         3.33421340825994   10.18065822673309    6.46493948557810
H         3.67846859426066   11.10619108129168    6.90073717277876
C         2.34472609370027   10.21296974856910    5.49901060220096
H         1.92379540443396   11.16126117147147    5.20059337315798
C         1.89768723436661    9.03999787660258    4.91460958895861
H         1.12323567058908    9.07124422855559    4.16329876319021
C         2.45089827224310    7.82774408796322    5.29302687793350
H         2.11077801994612    6.90990291253064    4.83788811924736
C         3.43949177921457    7.78805765522292    6.25812180888107
H         3.85176639535016    6.83923282235539    6.56542987697180
C         6.70373956460431    8.63562960967775    7.07844126514961
C         7.93241786861877    8.53929684818969    7.72978849853778
H         7.96936521650918    8.62564326548290    8.80892981256996
C         9.09726924869462    8.35074771598309    7.01123859109867
H        10.04515515524651    8.28347611509418    7.52521206417126
C         9.04727338819778    8.25060382834831    5.62962534461897
H         9.95524050881076    8.09924412461083    5.06661689497821
C         7.83160065099968    8.35058385610438    4.97493347235978
H         7.79117010075451    8.28006670630546    3.89866299825011
C         6.66287146714869    8.54347384334555    5.69218903155612
H         5.71913685543888    8.62229824779417    5.17303069705831

