64
CSD_code = MAFKOW | q = 0 | S = 0 | Stoichiometry = C26H31Cl2N2O2Rh | MND = 8
Rh        5.24603191259113    4.10139840067974    8.16760264648801
Cl        3.42553287951298    5.17623915316839    7.21790278975828
Cl        3.74978083200419    8.22154648394033   11.67118686417265
O         6.39808500602916   10.87621206348081    3.47580670995869
H         6.33256891040110   11.43815972437175    2.69753763379662
O         2.82122221258502    1.78520809775909   10.55572305467435
N         4.37303847800173    2.44610422639330    7.45304830554960
N         4.09923205872494    3.52794141747635    9.75291306921351
C         6.74998635340076    5.22786715896540    7.03268303339552
C         7.27358298536287    3.92707420407179    7.24204386020112
C         7.35791292591772    3.70279767856395    8.66192721165975
C         6.99677158037649    4.92511696634779    9.32194278037094
C         6.56593514846160    5.84869917050667    8.33315477132952
C         7.79743261304673    2.99136535723082    6.19735577049677
H         7.46942072329896    3.28611930095605    5.20342817250107
H         7.48561193527321    1.96406748604828    6.38194651781496
H         8.88844767189445    3.01594151826782    6.21527650900582
C         8.01737333152800    2.53281540785393    9.32129347856207
H         9.07893799327750    2.74430767688724    9.46528404769625
H         7.92837813251726    1.63530322978351    8.71333713809131
H         7.57741824440943    2.33659993435942   10.29664593501923
C         7.20000207145972    5.18976429270976   10.77805602378323
H         8.26443246404730    5.35073513999688   10.95910681060740
H         6.87654135204274    4.34779477322063   11.38673816550201
H         6.65705930435326    6.07224239859166   11.10322781130226
C         6.22136268605823    7.29050962260247    8.53806219754282
H         5.95770658617881    7.49089875429784    9.57301898228671
H         5.38330829491949    7.58020221938456    7.90710722286456
H         7.07683373958750    7.91398450928643    8.27347116036809
C         6.63295639250313    5.95082327164881    5.72575289991646
H         5.85009752436261    6.70408995292523    5.80322233970558
H         6.34939034965434    5.26249154736841    4.92637670468331
C         7.96824988304491    6.61715734620901    5.36790877563934
H         8.30691670347445    7.22447255550950    6.20910856237765
H         8.71629438604588    5.83780955697250    5.20368144066021
C         7.87151591608130    7.49585081427808    4.12094698350149
H         8.88217128679345    7.74154049002651    3.78465245596670
H         7.38407169428890    6.93641298501693    3.31893259311768
C         7.11030241318082    8.79341930915326    4.37484284955640
H         7.58571657307725    9.35392170276274    5.18161338536014
H         6.08201126227004    8.58910496451125    4.67277179559569
C         7.07185572162982    9.68382570247922    3.13743531204775
H         8.09755224776833    9.90398564990827    2.80298793346430
H         6.55060909187096    9.16332991274255    2.32033626784169
C         4.42512595539860    2.05692929445325    6.17982633276983
H         5.03687800625301    2.64889594184036    5.51076495849604
C         3.71931934302792    0.96405349533756    5.71388906206245
H         3.79176281345293    0.68412565308313    4.67494031473881
C         2.91818503135517    0.24706411878245    6.59458334005525
H         2.35691171649006   -0.60988971320217    6.25524432109274
C         2.84328840223406    0.67118855542771    7.90693411331776
H         2.22479424032508    0.18905829872167    8.64785618918000
C         3.58131829593271    1.77997353720693    8.29998099556132
C         3.46565708135905    2.34775490612206    9.68155693876839
C         4.03387892061261    4.31369856737759   10.90057568918595
C         3.89522233027247    5.69672363536131   10.75296311517576
H         3.78545444760975    6.11723078902876    9.76333479394002
C         3.88080367354235    6.50326696159418   11.87235542557721
C         3.97786845178984    5.97260409818183   13.14902982440959
H         3.96207745486615    6.61999618199870   14.01124428887706
C         4.08850764426044    4.59919772736010   13.28857733941056
H         4.15598749146697    4.17134558267482   14.27761403344677
C         4.12531271307413    3.76994880944009   12.18395047677560
H         4.20848611309644    2.70218143062890   12.30337947382851

