50
CSD_code = MAFNIT | q = 0 | S = 0 | Stoichiometry = C22H22Cl2N2ORu | MND = 9
O        -0.32082700891401   10.99295677239254   14.41994352306308
Cl        1.44649755917498   11.87857380177562   16.67066252632835
N         0.05598704279161    9.25297709213938   16.63848259179104
Cl       -5.96526959011979   11.10223543347850   15.85409841743015
C         1.81882953956479    8.80992957955883   18.23084374398593
H         2.16276886407061    9.82952901913398   18.11607459217431
C         4.58731219631344   10.92086559869254   15.64525102799514
H         5.20609757695839   10.33145522849059   16.31782161783273
H         4.05742839459864   11.67485079742526   16.23442872589280
H         5.22176995778883   11.43832759807891   14.92844489143453
C         3.57849280051445   10.06431711417929   14.94730640013233
C         3.27526244604316    8.76759386334972   15.41087780322222
H         3.82568330682236    8.35088862527514   16.24687763440464
C         2.28408462417080    7.99438776471564   14.77047814307187
H         2.08530116834534    6.99316775826154   15.13874707198580
C         1.63837807760874    8.44519556646829   13.59937660803133
C         2.00225723461281    9.72254894349916   13.10569220512515
H         1.56202367893100   10.07190073623567   12.17717881324012
C         2.94945356266618   10.52220653015181   13.75733290338709
H         3.24335476049742   11.47502226054795   13.33164257836902
C         0.64567580440057    7.57752235493678   12.86268340547232
H         0.32793930616000    8.11632876235601   11.96258310767405
C        -0.59279855792259    7.32968322327254   13.72826191923916
H        -0.33252639133689    6.81037155960548   14.64865187447954
H        -1.31676663069930    6.72699179023863   13.18501843671640
H        -1.06100645411198    8.27867333311873   13.98763491099125
C         1.28890394428625    6.25741801038971   12.42841367271373
H         2.19063186139172    6.44254303788609   11.84781262817264
H         0.59292380261418    5.69302103048757   11.81298798584588
H         1.55070277895222    5.64814672876857   13.29008533867303
C        -4.27815692960035   11.04769108443008   15.46682512431108
C        -3.79886900801464   11.80231939117081   14.38856306645891
H        -4.48226031413671   12.41179814055825   13.81772641538718
C        -2.47209540343053   11.76190027368651   14.06969472280933
H        -2.08250855434690   12.33800619155457   13.24471305207149
C        -1.53626157840253   10.98404008312522   14.80875307584544
C        -2.04905327465795   10.21754535082168   15.90778744787798
C        -3.42666375873836   10.27416926106504   16.20619672302242
H        -3.80186288963975    9.69707676453615   17.03759656189030
C        -1.23507786581042    9.37822877565080   16.70958271913133
H        -1.74587628440250    8.79099210883384   17.47175460794348
C         0.68634313213910    8.38045740669804   17.52862543275972
N         0.15928238188603    7.16869862522301   17.67807817542371
C         0.75836348280571    6.32282591165073   18.49905289202742
H         0.29272656619065    5.34887001752335   18.57463045095768
C         1.89703058368375    6.63660109574328   19.22186682409137
H         2.34924620151672    5.90985880929718   19.87763316637488
C         2.42503103689780    7.91547132687653   19.09162827953492
H         3.29411304269813    8.21140355196477   19.66111836922940
Ru        1.28998377719080   10.02181591468850   15.26267779397971

