125
CSD_code = MAFSEU | q = 0 | S = 0 | Stoichiometry = C45H49B20F6IrN2O2 | MND = 6
Ir        1.91624503772943   11.77134484246473   11.39150579033995
O         0.97951695318603   13.57484273484744   12.30252301222173
O         0.14582833448369   11.79783831813219   10.08463192374840
N         1.06510901359733   10.74074493895920   12.88135091555037
N         2.86520048494022   12.73647565635177    9.92117010360400
C         3.14730648633364   11.12719717482567   13.90941069750573
C         3.45101394568291   11.72974744368756   12.67247123534498
C         4.69163429841138   12.32781715872155   12.52403490936292
H         4.95689807301564   12.74918629514594   11.56627950603446
C         5.59465372069051   12.44816294980961   13.58091258526990
C         5.29562170461320   11.78009381442565   14.77021250505041
H         5.99889318499608   11.78065916481300   15.58653591519843
C         4.09730216043250   11.11501050145595   14.92786409987568
H         3.89690179137077   10.61510914725545   15.86367573307517
C         1.81300411284712   10.55709683761163   13.99599032529326
C         1.29876017616131    9.86685495195447   15.09194619983974
H         1.90726210249699    9.72640854022973   15.97008919214820
C         0.01277967280630    9.36518507116452   15.04619338453092
H        -0.39733344031712    8.82778917719044   15.88711436800085
C        -0.74030574504036    9.56374439343963   13.89682674966541
H        -1.74768734857163    9.18917360913401   13.81715512400225
C        -0.17153383764081   10.25425784690471   12.84366400225024
H        -0.72251721497048   10.41727360506987   11.92807659721260
C         6.80171816212304   13.30759193399987   13.43260097679963
C         6.68482207308866   14.84654259101245   13.95724196550442
C         5.38817972920798   15.20910368496343   14.59096824664414
C         5.34670374896614   15.66140769962912   15.91101147129793
H         6.26522896834210   15.81413207738743   16.45402317511436
C         4.14782140900804   15.90646154025824   16.55139620248706
H         4.14024381322809   16.25449677563104   17.57285868254567
C         2.95157443767667   15.67367527188152   15.88632737509315
C         2.96625876305157   15.24718119014551   14.56624793370416
H         2.04763317537315   15.04692455217421   14.03797648815945
C         4.17189212668903   15.04104294322956   13.92705513360793
H         4.13791130675503   14.72137756953948   12.90109772562167
C         1.63567945384788   15.90105193460292   16.56415984034611
C         2.81977108494984   10.21862537260658   10.51524660519704
C         2.80022877557772    8.89443924772291   10.91767192192678
H         2.21043049551489    8.61972331647954   11.77784942627170
C         3.54546725161080    7.90545258004733   10.27668554876852
C         4.28940538131812    8.27211917516861    9.15335176621108
H         4.87100525945687    7.54012631395357    8.61735065462598
C         4.30818966066378    9.57848058439713    8.71053479762615
H         4.89824290092657    9.82559884418097    7.84084134965852
C         3.59740037983415   10.56320925027202    9.39167389633353
C         3.59363866582546   11.97907276406546    9.06484525469612
C         4.27313052614610   12.56670358856461    7.99904817265097
H         4.84763858822140   11.95092042743774    7.32690709544609
C         4.20923441976241   13.93358763331327    7.81216173200340
H         4.73370323344726   14.40153060644137    6.99357585635834
C         3.46013567774286   14.69471116695948    8.70019657246721
H         3.38544244000526   15.76471780414563    8.59399519512876
C         2.80716670739027   14.05201129387813    9.73416655092342
H         2.21878372824377   14.61093136539407   10.44890339672032
C         3.56332222664474    6.53092018841127   10.84788886913212
C         4.96106711831249    6.00714910015342   11.47940173720277
C         6.13486056485934    6.91259195281543   11.35626922005172
C         7.30720933197689    6.45406245465696   10.75321316628162
H         7.36386009686215    5.43944210907084   10.39532843736218
C         8.40486137081858    7.27515722850314   10.58883159720509
H         9.29871206137145    6.89705997326189   10.11784483504298
C         8.34887854777631    8.59142969608689   11.02252951166893
C         7.19526427723502    9.07147264625240   11.62782880544121
H         7.14900190287942   10.09460078308329   11.96600118814744
C         6.10547747001628    8.23932502543227   11.79304660594169
H         5.22674580048532    8.65102536022447   12.26077891860065
C         9.51280207910190    9.51899672527598   10.83508641759993
C        -0.61568956385304   15.20183582871602   12.91844259730713
H        -0.47728236589416   14.93659396089293   13.96500428208322
H        -1.65851646037247   15.44675077401311   12.74527444849185
H        -0.00890327891708   16.08367327249129   12.71298337883229
C        -0.15577857557501   14.05150401524600   12.04082900900187
C        -1.01566131167396   13.65616125140621   11.01386685052614
H        -1.93284345451532   14.21368051483187   10.89957487258918
C        -0.80938464067420   12.60939527762887   10.10724241010925
C        -1.88017842291928   12.42911830306450    9.04531522701092
H        -2.85262185851997   12.28314987797082    9.51092070689810
H        -1.64074925757999   11.56801079290071    8.42626237246063
H        -1.93221912227275   13.31793773662997    8.41959216775841
F        10.57828288655036    8.92435133033311   10.27641540534638
F         9.20601978682588   10.55892736247113   10.03595409348486
F         9.94088734098311   10.04551136852777   11.99448236907041
F         0.75618294274891   14.90825192421799   16.33213261116601
F         1.73265542713941   16.01163041392615   17.89730759654131
F         1.02910929011967   17.02987823672090   16.13888321526397
B         6.75777341998483   14.58277178597135   12.25308591845626
H         5.78704662914360   14.75743288702632   11.61940487751772
B         7.62863484403169   15.91017872190990   12.98330841057410
H         7.21686363274273   17.00041240351099   12.82997844636590
B         8.21223088537074   15.41119957452404   14.55816065579309
H         8.21614755435310   16.18492815035032   15.44198585426009
B         7.67771231775731   13.77195721054083   14.85898452740244
H         7.25950076126220   13.43695480129472   15.90210005216326
B         8.38394932851922   12.70067633814982   13.65912590232513
H         8.48331140015050   11.55734924778324   13.91086516682116
B         7.82220786621455   13.20377550833179   12.06016289663864
H         7.54855823952511   12.39863575513877   11.24863351877413
B         8.40577051426603   14.86423914469607   11.75191303707190
H         8.63805474869740   15.24949412301091   10.66620849035064
B         9.32343912861085   15.38102352886060   13.18198409128705
H        10.21337585363678   16.14456998275427   13.10372954903380
B         9.33558528536233   14.04078411635689   14.35930510348271
H        10.22287666154567   13.85213563636527   15.10574416231480
B         9.43574182264999   13.68780149764464   12.61484913342830
H        10.40909413192917   13.24659400693128   12.12987664673011
B         3.67470249655113    6.41883487734053   12.56780984885282
H         3.76931737817036    7.41470261628723   13.18057960772837
B         2.21379395071390    5.91781371348869   11.73412783026876
H         1.24804691654006    6.58299034808236   11.80726766549793
B         2.67057795557956    5.23169459018650   10.17587279119782
H         2.01953484208536    5.46409149105937    9.22621285995802
B         4.41841316195771    5.25446058658746   10.03393409104262
H         5.00245600123750    5.50607546788577    9.04930908888536
B         2.90621263686526    4.91960965791755   13.03632147022673
H         2.38620554112355    4.81736266754570   14.08552681040852
B         2.26078381724914    4.16227519739245   11.54858985691237
H         1.27498760757010    3.52248807005545   11.55725861643403
B         3.63026832409502    3.75603689784999   10.48922598029704
H         3.62229627298287    2.83792396422778    9.75620632405479
B         5.11024722898021    4.28408581064026   11.32093823772472
H         6.17860245068833    3.81687278347083   11.18428102072658
B         4.68431965955333    5.01681512108710   12.85960150915163
H         5.48233869217197    5.06570303412512   13.72081902813689
B         3.79155609357050    3.58673768711504   12.26287735899059
H         3.90275572536801    2.53555023816602   12.77609475403998

