50
CSD_code = MAFXOJ | q = 0 | S = 0 | Stoichiometry = C15H22F3O6PSi2W | MND = 6
C         1.99449855511419   11.23261830850407   10.78924438621184
H         2.28375952783892   12.00496584152888   10.06740818086777
C         3.09141420127854   10.65207145852542   11.67803454541205
H         3.97449472284917   11.28458335666024   11.71426828188433
H         3.36795942187715    9.62324883587130   11.45462604080484
C         1.27426062659467   10.12711802133510   10.02732693045872
C         2.65819723913901   12.23902303673299   14.11726894670336
H         2.11576197493548   12.13485576713756   15.06318154899304
C         4.77617974168400    9.89092501955313   14.28989542194570
H         5.44075203303433    9.70762373046857   13.45081505219560
H         3.84671163645898    9.35630742220012   14.10030744632173
H         5.23310255569645    9.43747155329053   15.16442558756324
C         4.68703910508318   12.16403995819611   16.41962076760578
H         4.03560112574812   11.55434255638194   17.03841135036597
H         4.46441876628082   13.20450476123589   16.63135321317557
H         5.70755023468720   11.97599251306936   16.73699353836587
C         5.74977423922451   12.74033627827891   13.54852315981640
H         5.55070769203721   13.80596124522473   13.56902680173352
H         5.79361029335645   12.43284814781782   12.50790853962734
H         6.73949180446938   12.58575607458934   13.96601850922456
C         0.31387007562353   14.18567574196435   13.57600655326716
H        -0.05944319782107   14.16981292105862   14.59627067218207
H        -0.15850319814421   13.36814509167142   13.03868518523115
H        -0.01638092629575   15.11597213869720   13.12329204628699
C         2.95337465045786   15.21619811484192   14.81636636131493
H         4.03708288952776   15.18805277756125   14.83375722049968
H         2.60182551990234   14.99215646390550   15.81780572140137
H         2.65669539857313   16.23427632989742   14.58954286207911
C         2.90895243622164   14.45470782813106   11.80708382836603
H         2.18876477516335   14.22018432260231   11.03049791564312
H         3.83204320385161   13.93191711571168   11.58000405157270
H         3.11431408457130   15.51880228950415   11.74590376294331
C        -0.70769439177632    8.13443151713528   15.28215944886413
C         1.78757473842939    9.31774724791834   15.77421147243372
C        -0.38524906121209   10.92912616426901   15.16069911746453
C        -0.91873936931079    9.50809505971632   12.84214987704552
C         1.36283460309466    7.80223209944210   13.38968056484826
F         0.16431027906691   10.54425127403344    9.42097927460429
F         2.06514623491065    9.60006666856417    9.07862329222176
F         0.93104642516919    9.11963147883780   10.84540007983771
O         1.14564855890029   11.74978836222189   11.79607659664519
O        -1.39401172219264    7.43860409448357   15.87386150727299
O         2.47493686546544    9.35096894096624   16.68965354425911
O        -0.86878919871240   11.81255259764333   15.70229723908108
O        -1.75827207570399    9.63719117297531   12.08500611828273
O         1.88858526646862    6.92114031380348   12.89055534140474
P         1.90176000690887   10.95352136461293   13.09409065114760
Si        4.47013106477190   11.75734628491000   14.57199153612208
Si        2.21003401259070   14.01898511880280   13.53041264292874
W         0.47866655411145    9.36642521751601   14.27297726547150

