63
CSD_code = MAFXUN | q = 0 | S = 0 | Stoichiometry = C30H24Br2MoO4P2 | MND = 6
Mo       10.63936941640978   15.35930466630343   -0.02443705536227
Br       10.90705324641977   15.35982684101397    2.43018058156881
Br        9.40144480646945   15.35753565087714   -2.20508889643263
P         7.45639441121695   13.65057983993531    0.45171650468979
O         8.88215608382832   14.07400324881411    0.56519245539088
O        11.52231840558749   14.02127363080602   -0.33923802033708
C         6.63536344898830   13.70371608735279    2.06554746617585
C         7.42598934176528   13.69537119796603    3.20721651411264
H         8.50347201095298   13.72042602023812    3.11711665901597
C         6.82550499832775   13.67203867269705    4.45383528815711
H         7.44012482805905   13.67072955234514    5.34029500715545
C         5.44472379391029   13.64857445517201    4.55703737901552
H         4.97666743339132   13.62483561924111    5.52966947453421
C         4.65701531491998   13.65908222682809    3.41585111567510
H         3.58049877334859   13.64452612158525    3.50049122108654
C         5.24889317891129   13.68767898557829    2.16713391917808
H         4.64363986392954   13.70377729491304    1.27059915278154
C         7.41402195433930   11.94623944126384   -0.16467500492122
C         8.38326793421110   11.59232130127218   -1.09738199702750
H         9.10023474367039   12.32989554644970   -1.43402138936008
C         8.43058691614122   10.29708621898335   -1.58013440244042
H         9.18207133513764   10.02164183192247   -2.30385438149522
C         7.51721294244644    9.35721540044430   -1.12926676841408
H         7.55725881426772    8.34478473246766   -1.50216823070871
C         6.55658880775241    9.70915192646451   -0.19391481839067
H         5.85212966382760    8.97235578569843    0.16247890334974
C         6.50130021015929   11.00358509733974    0.29170294809049
H         5.75980632591143   11.28147256950478    1.02740291399455
C         6.43905046962838   14.66025683986417   -0.68977921350496
C         5.63122938287056   13.98145394886906   -1.59418966442839
H         5.63879014476684   12.90136667426088   -1.60180482256970
C         4.83058127102625   14.66834245828232   -2.49004500611774
H         4.21719715808836   14.12175532282294   -3.18953118108175
C         6.43936117945435   16.05905207461667   -0.68998702136833
P         7.45697623399201   17.06880802740070    0.45129310627514
O         8.88298022555540   16.64606534025048    0.56416076758181
O        11.52438515492352   16.69620466309587   -0.33821040125596
C         6.63659841108583   17.01522260167422    2.06542968757492
C         7.42768179812928   17.02382690317078    3.20677979061729
H         8.50513616896342   16.99919865418215    3.11626936674525
C         6.82770506453744   17.04680908924522    4.45364472448774
H         7.44270366624139   17.04826720409732    5.33983985054513
C         5.44695840861563   17.06972149991310    4.55740395023774
H         4.97928427062154   17.09321068746107    5.53022525494084
C         4.65879340973761   17.05902408550225    3.41653115239678
H         3.58230831018670   17.07324267569594    3.50160860278486
C         5.25016659572803   17.03074014528043    2.16757111489092
H         4.64456133974180   17.01454442843827    1.27127497161854
C         7.41388803090151   18.77313491786770   -0.16500958053968
C         8.38228110184128   19.12703240063902   -1.09861352899672
H         9.09878322527214   18.38937254924358   -1.43603295308495
C         8.42917405161265   20.42226680058655   -1.58139187957792
H         9.17993398485195   20.69769114382947   -2.30586903386298
C         7.51624690181746   21.36214799474400   -1.12962911674350
H         7.55596452586942   22.37458600015422   -1.50254454967525
C         6.55648784729462   21.01021385182702   -0.19339281316250
H         5.85238413783938   21.74701822215939    0.16368279673691
C         6.50161289630239   19.71576999583667    0.29224791422117
H         5.76081187317402   19.43787186839068    1.02864305578876
C         5.63173882029051   16.73784851703731   -1.59458256387399
H         5.63991102200211   17.81792250510215   -1.60275190872633
C         4.83080418077341   16.05098216990099   -2.49020502642028
H         4.21781973195607   16.59759777508515   -3.19002238153475

