50
CSD_code = MAFYOK | q = 0 | S = 0 | Stoichiometry = C19H17F6O6PW | MND = 6
W        -7.39009040923591  -12.64981873968388    6.82037617334970
P        -8.50958132495678  -10.52397099071148    7.24168029101572
F       -10.81164462984200  -12.57728899394196    7.04744719656262
F       -12.45593351423902  -11.47301680982276    6.22841372755255
F       -12.37173977478471  -11.86111565305736    8.34450833556930
F       -12.98920980302579   -9.24531709070509    7.45719471279901
F       -11.89065396338163   -9.20008343672059    9.30739636634356
F       -11.31977217467422   -7.93060341212454    7.67669922592418
O        -9.77883471477131  -10.49017050615843    8.38693996176544
O        -5.97400152480955  -15.37340818655627    6.23958621955020
O        -5.54092294161383  -11.45345985397442    4.58854342251253
O        -5.41502841309796  -12.48950940847575    9.24353227546092
O        -9.13574892563953  -14.09664891662398    8.99123758607245
O        -9.35320159365270  -13.29711452804807    4.45983599708986
C        -9.98882019791834   -9.94451717129894    6.21984938792595
H       -10.00170567349470   -8.88970712816928    5.95167681774083
H       -10.23851394798254  -10.55303805602912    5.35142862656606
C       -10.82033506360442  -10.25967081582444    7.46562273115959
C       -11.63741602496728  -11.55086110410877    7.28222053982703
C       -11.76616865714987   -9.15421837100360    7.98523279068395
C        -7.52688846756588   -9.00371750984089    7.62496394046648
C        -6.60322824977094   -8.86606644053549    6.43972791315935
C        -5.34375148961889   -9.15559916814914    6.82829441255903
C        -5.33734619328241   -9.50068705607924    8.24776906853717
C        -6.59610265155583   -9.44286529092189    8.73016349630873
C        -8.31254729550027   -7.75313115644219    7.99323693723309
H        -8.88474515051751   -7.36392684230969    7.15529985500310
H        -7.60817876378628   -6.98414804512237    8.30563524697596
H        -8.98787167875374   -7.95522806390027    8.82133347138377
C        -7.10388129150927   -8.46066432392735    5.09587213541408
H        -7.75643898255166   -9.23207169887034    4.67950573365496
H        -6.27744939032744   -8.31221518106536    4.40683594336775
H        -7.66817318604864   -7.53018134621089    5.15488906557837
C        -4.08975466295347   -9.11954026981558    6.02586809371116
H        -4.28887666769473   -8.89283380221709    4.98305335454983
H        -3.58104857265560  -10.08077363179828    6.07885660927916
H        -3.41470877092431   -8.36326939597071    6.42551896624758
C        -4.07708952086232   -9.79935480083136    8.98334615269886
H        -3.51615470727697  -10.58484081689883    8.47963569467558
H        -4.28038797146389  -10.11312457058659   10.00261907628338
H        -3.44879962228722   -8.90935607117419    9.01495429555819
C        -7.09867455747493   -9.68265617671359   10.11134224904977
H        -7.24860360094384   -8.73820626343114   10.63668751665555
H        -6.39385205358767  -10.27937572912549   10.68452059825151
H        -8.05415817669523  -10.20682621057369   10.07715146966916
C        -6.49029489766521  -14.37772327980425    6.45404559530883
C        -6.21060382121345  -11.81009046269741    5.44156805169892
C        -6.11457674360824  -12.41371397177563    8.34603720685817
C        -8.53558108295984  -13.56101870669747    8.18754848815632
C        -8.65610850609697  -13.04415454348030    5.32709697623303

