99
CSD_code = MAGLEM | q = 0 | S = 0 | Stoichiometry = C44H52Cl2Zr | MND = 12
Zr        2.23627764695983    1.80287177415193    8.28048134938638
Cl        2.50002565547934   -0.50972247441249    8.33955626553992
Cl        2.01724337750532    1.93511980151149   10.59597351303428
C         2.95517997761052    3.92949505148390    5.76468895470143
C         1.43238776750681    4.12192139100329    5.96816448148143
C         4.47478357581996    1.01620887215542    6.03767494608263
C         5.19854724610146   -0.11592474629891    6.34908493999759
C         5.67893923113104   -0.29070721972095    7.66542898478693
C         5.47692954956426    0.63997082610739    8.65466130201232
C         4.76574485370147    1.80764013678261    8.35629049346870
C         4.47197217069681    2.99215708800953    9.11753108753651
C         4.83716907734624    3.40250603802783   10.40199592031529
C         4.54701189103846    4.68352613618601   10.80342723965105
C         3.89012825127240    5.60852577837478    9.96556629769555
C         0.95902613046411    1.06528443818196    4.95580619778608
C         0.55157088001763   -0.21925344421734    4.65722212715126
C        -0.07152273165071   -0.99027765509044    5.66046992900185
C        -0.34747363032269   -0.49003929638078    6.90945787838807
C        -0.00150468814634    0.83062395706049    7.20593355088425
C        -0.28946378507765    1.68136133802391    8.32948690920532
C        -0.97334356457696    1.46742141764083    9.53156997466410
C        -1.17855646803908    2.52631734675755   10.38138345123522
C        -0.72804506395941    3.83249568232320   10.08949042958961
C         3.46402194797474    5.19784404908265    8.71853393245442
C         3.74497578367064    3.89361544847154    8.26370087828152
C         3.56485890014153    3.27249641570068    6.97766107131025
C         4.25060985392117    2.00856168573586    7.01795735904694
C         5.46130847955462   -1.21894626129666    5.33616309931083
C         3.77307175405348    7.05025599930561   10.44116361065263
C         4.63550606456760   -2.44061772721542    5.76391706848499
C         5.05377490049179   -0.81738833933854    3.91668403406603
C         6.95484643492645   -1.57289790857593    5.30418395726619
C         2.98388113510525    7.93552431382135    9.47173934169734
C         5.19482248781868    7.62481687634973   10.54928721159881
C         3.09549044009270    7.10960018574718   11.81665060566801
C        -0.03114128922857    4.06262299565492    8.92169705918804
C         0.19493232570469    3.00797042910551    8.00919999122995
C         0.85704856691420    2.95657450560868    6.73330130816917
C         0.69211701412615    1.62063533274867    6.22356155902558
C         0.65336513615111   -0.80998035278130    3.25751829256542
C        -0.99239644753724    4.92833147615130   11.10976953693302
C         1.40843403112700    0.09720475100448    2.28118637514081
C        -0.77536563204543   -0.99101664022593    2.71988590009587
C         1.35646940499294   -2.17329639718714    3.29929320192746
C        -0.14085328631210    4.61764543691986   12.34899897842774
C        -0.61688599221462    6.31654107901914   10.58619339871426
C        -2.48094144877688    4.96354618082047   11.48392923839726
H         4.10358977234326    1.18377532661850    5.03651878332933
H         6.22071321677561   -1.18938889987873    7.91131597608094
H         5.86722093193275    0.47929177078679    9.65095165975375
H         5.36975267464534    2.72901948416289   11.05869872530467
H         4.86270717719425    4.99467054865371   11.78616178477982
H         3.13268458934145    3.29782382286716    4.89052581630103
H         3.42791003623139    4.89876726757244    5.57180267398561
H         1.42007650041751    1.68983002081162    4.20531484113112
H        -0.37190725473522   -2.00132750178859    5.43736085777916
H        -0.85410980195691   -1.09914357381917    7.64485695281138
H        -1.34072685104829    0.48078274014890    9.78125909445800
H        -1.69924240090882    2.34564184293823   11.30760489747859
H         1.24941613848876    5.04177811007212    6.52947792447286
H         0.93958610841886    4.22647217400072    4.99534531445798
H         2.97645068862287    5.88595793104640    8.04426160951048
H         4.98466469758989   -2.83045736125171    6.71579509886375
H         4.70915858109400   -3.23071130883511    5.01922960140963
H         3.59057717683279   -2.16109696209582    5.88604352851075
H         5.28161516518171   -1.62826879539422    3.22775219024188
H         5.59857760226563    0.06654996688747    3.59094309320523
H         3.98697867382667   -0.62188419474079    3.86143736309141
H         7.13908778395569   -2.32653134950628    4.54145157538284
H         7.29845689447379   -1.96941829771995    6.25440314905687
H         7.54573223039043   -0.69043314135532    5.06736259375856
H         2.91083367589777    8.94201468392819    9.87842952619529
H         1.97372279205943    7.56208285708769    9.32352503390954
H         3.48347016114775    8.00221021715144    8.50799947916877
H         5.15556769268902    8.66169585595480   10.87645638085505
H         5.69255937955018    7.58488323410249    9.58258192678177
H         5.79256243143760    7.06294329969342   11.26140710340619
H         2.95459679336852    8.14577560437274   12.11735730117251
H         3.69521921828503    6.61902916920839   12.57740218728793
H         2.12463443747369    6.62350484622074   11.78746844787776
H         0.31675773335060    5.05320715692375    8.66503121739832
H         2.42172979269019    0.29381315733671    2.62237531282510
H         0.88923265731768    1.04307718606791    2.14483443389748
H         1.47219517507161   -0.38966987560509    1.31028931444733
H        -1.35065255968321   -1.66214830138714    3.35135815094576
H        -0.74701542619335   -1.40544188140156    1.71431939022788
H        -1.29003439561355   -0.03300072006955    2.68570968477341
H         0.77695028543809   -2.90314836498332    3.85660046588154
H         2.33203427659968   -2.08770268492401    3.76896107260702
H         1.49126873061426   -2.55331939911814    2.28868369088747
H        -3.08894082258253    5.11627444876648   10.59455241635792
H        -2.66846393898154    5.78259136409523   12.17505680397828
H        -2.80081373982101    4.04338044527471   11.96268966080693
H        -0.21720846763469    5.42366252825823   13.07615306251135
H         0.90203038891961    4.49170437292962   12.06364294043262
H        -0.46597051098862    3.69520316127220   12.82158522069048
H        -0.84469621715379    7.06599903582814   11.34149491917885
H        -1.18097712497470    6.55929332470387    9.68779416615552
H         0.44565933469673    6.37321988582074   10.36894235093223

