89
CSD_code = MAGQUH | q = 0 | S = 0 | Stoichiometry = C32H49F5P2Pt | MND = 4
Pt        7.66615509350633    9.73425312752131   20.39020387348660
P         9.43150304859400    8.89816872168281   21.57891136190132
P         8.59712335773545    8.62695614591492   18.58167353007052
C         6.22626933113694   10.64380868241346   19.28814887404243
C         6.45477882294646   11.94530456947631   18.84567584743646
C         5.59969430982548   12.63891659525812   18.00313908884097
C         4.42996796745482   12.02350174659496   17.57122845281147
C         4.14610149777680   10.73243722299136   17.99961392577784
C         5.03586015342842   10.07777507854985   18.84133261796850
C        10.41521482838666    7.69272611191775   20.55064132041461
H        11.46996506088716    7.74652506633557   20.83669080602115
H        10.04827193194850    6.69916458353105   20.82121581200462
C        10.25258110829776    7.90807274557044   19.04570476499280
H        10.40884808413977    6.97279485327421   18.50116855547224
H        11.00521560338872    8.61477740634734   18.68765175462221
C         9.25765202674661    8.03096388541617   23.20710484667916
H         8.88317009332411    8.81086745682193   23.88292643634781
C         8.17373251752280    6.95727511660251   23.12120079521329
H         7.26146062719113    7.40071278151126   22.71222098218443
H         8.49127508620860    6.15123879884150   22.45560136062631
C         7.90482107485067    6.37513170685063   24.50564385173846
H         7.52287470656769    7.16074534693699   25.16072271958821
H         7.14315928491023    5.59622241148919   24.43822432037101
C         9.18865368961085    5.79925120848465   25.09748522552669
H         8.99366639891752    5.40443671719325   26.09615388812309
H         9.53618255859074    4.97151655843386   24.47428829273329
C        10.27472186702884    6.86918345731317   25.16788643902318
H        11.19312581091348    6.44175880009136   25.57597307617823
H         9.95126464370489    7.66874868572007   25.83821277434880
C        10.54813906568930    7.45131182206216   23.78166599052373
H        10.92397967158842    6.65810296239147   23.13178103339286
H        11.31680274118726    8.22383810843166   23.85284895169947
C        10.62490076616447   10.28108772881590   21.90439130709257
H        11.62701493104682    9.88724554472983   22.11875990650190
C        10.13287205937598   11.13618258350860   23.07252238369642
H         9.08941540596024   11.40619520473654   22.88459111258224
H        10.18077340383442   10.57072363929358   24.00529747498114
C        10.96586221768373   12.40687517258429   23.22021394736342
H        10.57925041387762   12.99782064836403   24.05255986752256
H        12.00066026560440   12.13979876307907   23.45261873238290
C        10.92994882887641   13.22537667014228   21.93535357116526
H        11.52145970914826   14.13510860886292   22.05282278468448
H         9.90062712736307   13.51402233310659   21.71653216871441
C        11.47129011203949   12.39176291134660   20.78116637734598
H        12.51653963819654   12.13372612846149   20.97501936473392
H        11.43301181655622   12.96533330647116   19.85342143844908
C        10.65032290000880   11.11797210208085   20.62321213824055
H        11.06147734806002   10.52410218716832   19.80500782001858
H         9.61143031114721   11.38612142022907   20.37435747579357
C         7.49904692355515    7.16738987623673   18.28347796753779
H         6.59745839065440    7.59899583018805   17.83024060944204
C         7.08460553365285    6.58820223199725   19.63651468040979
H         7.94814386774484    6.12155001674239   20.11612159475801
H         6.71916968936644    7.40184255030541   20.28257261681981
C         5.99232159862705    5.54251431734220   19.44668897301119
H         5.71515938194163    5.11610045323153   20.41257431174549
H         5.10697420753804    6.02260737088919   19.02736239664682
C         6.47467569878582    4.43845677897894   18.50858223949917
H         5.67667408361536    3.71124761781611   18.34889154062697
H         7.31629666816261    3.91266253323530   18.96790818213534
C         6.91617230597305    5.02114491372815   17.16832653629759
H         7.27695179636715    4.22305104858559   16.51547211998565
H         6.05998479721813    5.49152509045173   16.67982391161235
C         8.01824691474307    6.06120108901044   17.36943657959582
H         8.32598239194267    6.46546529657784   16.40221356914083
H         8.88330503532921    5.56985637955309   17.82190060395961
C         8.96021871153965    9.29490908864731   16.88269519327446
H         9.58785682577845    8.57103226533000   16.34512182979426
C         7.65977404471514    9.52508143427215   16.11050032564244
H         7.14630566481601    8.57730562500562   15.93805026166904
H         7.00053679643110   10.16294207549993   16.70632777406606
C         7.92167258802775   10.19576223587948   14.76421818271443
H         8.52619121434203    9.53234580819022   14.13987525493783
H         6.97158219111880   10.36183588125129   14.25299628596026
C         8.65439060599490   11.51840664627984   14.95308289096962
H         8.03448802558476   12.20011932588666   15.53889170614118
H         8.84124325294608   11.98421868025231   13.98397177044034
C         9.97069592592548   11.27673889132794   15.68147538065485
H        10.49586753818032   12.22171045371936   15.83199468876697
H        10.60935704341692   10.63052267886030   15.07299464125495
C         9.71753397420895   10.61698051492437   17.03314530569103
H        10.67576990786816   10.45200306563213   17.53121217773135
H         9.13047797586290   11.29359647809282   17.65829750074041
F         7.59754194078075   12.55305126781092   19.24891017421832
F         5.89438749249444   13.88361415758811   17.59062936617784
F         3.58879207209022   12.66645698588907   16.74613221894333
F         3.02260129008690   10.12323111440951   17.58375054608766
F         4.73388881588069    8.81573411630414   19.22182490156694
H         6.96776749773224   10.32854437921598   21.61380374791175

