63
CSD_code = MAGSAP | q = 0 | S = 0 | Stoichiometry = C22H28Cl4N4O4Pt | MND = 6
Pt       -0.00002360411596    0.00033540238655    0.00027594717035
Cl        1.84282880448828   -1.00097107640153   -1.11175681727937
Cl       -1.38894549845380   -1.84173828196556   -0.51292054859870
O        -1.50574397610793    2.01070065860073   -3.44560985963486
O        -3.05698594066356   -0.84849972489398   -4.79624150665568
N        -0.61507829369734    0.70330240619500   -1.78026047359438
H        -0.73297068589683   -0.07562161406210   -2.43948409110198
N        -1.73895103451859    0.86842027599483   -4.23721788972368
C        -0.98856651381358    1.83916732655948   -2.22524326958292
C        -0.88575045848703    3.13656088667464   -1.49905934051816
H        -0.78489921494327    2.95047826141900   -0.43053660967735
H        -1.79797731188934    3.70340329251854   -1.68864002519416
C         0.32752564940834    3.92261884667358   -2.00817619991976
H         1.24151419909804    3.37420671752415   -1.79905546466096
H         0.37569358370144    4.87607017199328   -1.49152655162183
H         0.25064307953689    4.10361744293958   -3.07724400115710
C        -0.84912304156510    0.73572650160072   -5.36262178767526
H        -1.17929786442627   -0.13797123284655   -5.92062584202853
H         0.17697840987063    0.59020159294586   -5.01941264888818
H        -0.90175051724526    1.62093562780030   -5.99863605469199
C        -2.85267049504375    0.07716543552427   -4.04567213679448
C        -3.66647046085622    0.38602655603432   -2.84247300536506
C        -4.11085926677852    1.66975086653525   -2.53840267672640
H        -3.91016138212798    2.48945537580370   -3.21363550108123
C        -4.83256214605449    1.89056864029281   -1.37994765355471
H        -5.17252388597521    2.88789634705628   -1.14374795196759
C        -5.11297096043990    0.84019817173863   -0.52165660325269
H        -5.65566514729801    1.02385281705445    0.39306140924991
C        -4.70581441279886   -0.44369302597902   -0.84158482670770
H        -4.93308273933097   -1.26694538995439   -0.18240148466432
C        -3.99600557915675   -0.67588402760155   -2.00441502858062
H        -3.67288398436649   -1.67153264189416   -2.26540158797348
Cl       -1.84308016628356    1.00143244548551    1.11231518575289
Cl        1.38866727796239    1.84271096933849    0.51318386962585
N         0.61512358850347   -0.70257394058664    1.78079052273625
H         0.73353833412560    0.07648151617910    2.43976636652484
C         0.98827734952017   -1.83847357549972    2.22595374869893
O         1.50574632736119   -2.00989564174635    3.44621565071831
N         1.73991231223820   -0.86747025349279    4.23731907919068
C         0.85038481943915   -0.73357286609538    5.36281157501733
H         1.18116018509041    0.14029416802580    5.92019526599415
H        -0.17571938728715   -0.58770849904446    5.01974660445328
H         0.90268397070318   -1.61841528695932    5.99935998138483
C         2.85387765461252   -0.07679334214002    4.04486068111872
O         3.05883918725625    0.84929913736557    4.79473041823447
C         3.66707630615691   -0.38683226497273    2.84155536536802
C         4.11081453129657   -1.67097456366869    2.53831609146646
H         3.91002025931329   -2.49006734910162    3.21426068095626
C         4.83213698268996   -1.89296604047630    1.37985077797567
H         5.17159111204088   -2.89062157853211    1.14430107764329
C         5.11279067955513   -0.84335595405253    0.52071109948184
H         5.65502200479882   -1.02795043593016   -0.39409284428584
C         4.70622105923969    0.44094022886746    0.83975829207739
H         4.93355331007086    1.26357223958961    0.17982448859020
C         3.99679958715928    0.67430740638133    2.00259008370150
H         3.67418712230711    1.67029306888468    2.26291871947098
C         0.88464420598870   -3.13600232673926    1.50013959915673
H         0.78386359141478   -2.95014542428859    0.43157091484814
H         1.79651937117285   -3.70335997593796    1.68985064670380
C        -0.32911841796856   -3.92114879071169    2.00949618846306
H        -1.24275176096375   -3.37215193142261    1.80035440921393
H        -0.37797630161606   -4.87466166575295    1.49302419335700
H        -0.25225440595383   -4.10199207923278    3.07859134881584

