28
CSD_code = MAHFEH | q = 0 | S = 0 | Stoichiometry = C3H9CoN12O3 | MND = 6
Co        9.83228308830053    6.78919603927714   15.09991662208735
O        10.47320966862395    8.49307399842174   17.03366602630583
N        10.42853933604612    5.02254824020336   15.74514632004581
H        10.42914073183309    4.07348106895318   15.38829807405859
N        10.36233782291836    7.31486322304645   16.73671159136840
N        10.73639858579512    6.40207737111855   17.54132843843493
N        11.00031772382099    4.14259503432974   17.85127018654673
H        10.78926644958346    3.19457018144557   17.59059542625296
H        11.02603348765731    4.36674789721628   18.83123846254163
C        10.67971034254309    5.15105446032427   17.01059616229237
N        11.59886291203352    7.43455599265364   14.50367686750164
H        12.54793884887949    7.07772891858571   14.50298056477580
C        11.47026372192908    8.69993902577169   14.25225139260351
N        10.21920609941918    9.23062937978697   14.19571969528648
N         9.30651005170528    8.42598444296955   14.56994319239318
N         9.18701358892904    6.19299123897758   13.33327861429291
H         9.54384226150571    6.19243758064191   12.38420199367462
C         7.92160851351308    5.94163740609968   13.46183642830645
N         7.39090919357073    5.88493876860080   14.71287844745222
N         8.19551281095934    6.25909008555681   15.62563488091241
O         7.89857104516929    6.14824705628112   16.80383914681813
N         7.08097593541546    5.62083517749936   12.45341278845901
H         7.34161969021688    5.83184328732543   11.50536876842007
H         6.10101247040616    5.59494277718931   12.67756335824078
O         8.12832042624822    8.72290536899782   14.45927308976565
N        12.47864061702921    9.54057620479610   13.93128156279633
H        13.42670054041365    9.27997452034136   14.14226321683022
H        12.25445403553468   10.52053525358894   13.90542868153564

