36
CSD_code = MAHFIN | q = 0 | S = 0 | Stoichiometry = C17H12ClN3O2Pd | MND = 4
C        -1.18944057795630   -1.87031815324704    2.01113875313652
H        -2.16779520404275   -2.28046579673152    2.17002371504129
C        -0.25645359143023   -2.09989653006980    1.03801098524935
H        -0.34347962685339   -2.77254386289303    0.20974463843032
C         0.83568391090664   -1.27091967979195    1.35107601332569
H         1.76013778730309   -1.16398377625127    0.82355250476925
C         0.48213050363658   -0.59594929170050    2.49888180048211
C         1.22517598432273    0.38871545182328    3.26578673658767
C         4.07233866176767    4.22373483185061    6.19118225519346
H         3.29710192089161    4.41062469437368    6.92611432266000
C         5.30785644845831    4.84567648204034    6.25602480395405
H         5.51868443333616    5.54449595468407    7.04829174028564
C         6.26225086241456    4.53649607768672    5.29394720711616
H         7.24277516410493    4.98617929125987    5.32957504254949
C         5.94483899252222    3.64009556941743    4.29279097861408
H         6.67078962068152    3.36196744881056    3.54590767693011
C         4.66935708745242    3.06647133459525    4.25539063848459
C         4.23037148296521    2.10357696919826    3.26457549330819
C         5.01469358359423    1.73541151900028    2.07833965691440
C         5.14405623215928    0.39663066598123    1.71261134296126
H         4.67888465767193   -0.36477333582287    2.31829987009018
C         5.86668391694477    0.04923763492128    0.58695534539151
H         5.96725384383672   -0.99111161620980    0.31543225319973
C         6.46071274104647    1.02847851450161   -0.19209010552561
H         7.02387325638540    0.75472073366280   -1.07172434074147
C         6.32129527397747    2.36231076651548    0.15485704149376
H         6.76872125461093    3.13058857437440   -0.45844876912518
C         5.60294640930453    2.71734537183941    1.28118893501196
H         5.46899453128291    3.76036841439097    1.52892882434127
N         2.44047759066358    0.67672692910840    2.78932662218387
N         3.04817726796828    1.59026394856254    3.53460783112753
N         3.75993972895103    3.36271655680935    5.22894663673857
O         0.71745048591743    0.91071996706486    4.30697813152025
O        -0.75308511311748   -0.96970176237510    2.88947135489029
Cl        0.99335131557075    3.10097366888793    6.74572206097957
Pd        2.10744916319085    2.28013643402219    5.02508200239900

