60
CSD_code = MAHGIN | q = 1 | S = 0 | Stoichiometry = C28H27CuN3O(1+) | MND = 4
Cu        4.19230542667625    0.86801395153816    9.08055468639274
N         4.55880408340661    2.05564123032556    7.48158501567318
N         4.97364855415680    2.19019450064560   10.47053123183532
N         2.39221643494521    1.82557364964723    9.48703741242608
O         5.16551744876818   -1.90773479178099    9.12269999048207
C         4.33132840679519    3.46533132181703    7.68650131862100
H         4.60204877778201    4.01309800898992    6.76823673022035
C         5.21197135445340    4.00780650860825    8.81936045566666
H         6.24270677339658    3.68425709066562    8.65714319689442
H         5.18882264857935    5.09768005526860    8.77114779485026
C         4.76497978069847    3.59415784925067   10.22427627028309
H         5.34424134337731    4.18801930758670   10.95170236284679
C         3.27748769718723    3.90888541779451   10.42569747458418
H         2.96591092003596    3.56388732837219   11.41435773443660
H         3.14240183354412    4.99040348838836   10.38327856436055
C         2.38527405992668    3.26683096586128    9.35318352798805
H         1.35995286561854    3.63969838633913    9.51016323459408
C         2.84140049594267    3.70648721926742    7.95948008759951
H         2.64431733864131    4.77512996457081    7.86265433112744
H         2.25251441530757    3.18435750453289    7.20282491020032
C         5.14294443546552    1.66486936016809    6.42520512855128
H         5.52568365089696    2.39870591234788    5.70670542728493
C         5.34635235995546    0.27178529139121    6.06512026702946
C         4.33354863445211   -0.66997633683833    6.25338932831798
H         3.38068360271120   -0.34331405214239    6.64173890833973
C         4.52620653255961   -1.98461273714547    5.87287420578488
H         3.73103589541651   -2.70338682661124    6.00029326577372
C         5.73502153664317   -2.37831731344728    5.32101198949728
H         5.88670299750549   -3.40647346497266    5.03121852006561
C         6.74243942606947   -1.44683194927298    5.12117766724087
H         7.67800235138926   -1.75035356862130    4.67752031337064
C         6.54571009981190   -0.12493022610348    5.47248821441467
H         7.32747587439778    0.60216616975757    5.30936133219470
C         5.69516138246378    1.81610757395724   11.44294811839352
H         6.24970650624339    2.55244896574497   12.03676090971451
C         7.07238297192704   -0.05519687750387   12.28173332687865
H         7.93589282199859    0.59308138786779   12.25922488255034
C         7.19993137868654   -1.36793142521938   12.69440660920568
H         8.16460567180752   -1.74260010215372   12.99980354939296
C         6.08979804099154   -2.19831732400771   12.73183537216616
H         6.19169034464695   -3.21856752302297   13.06771624172613
C         4.84763315852620   -1.71219950975253   12.35655464772261
H         3.97558581606185   -2.34669733959948   12.40719315658671
C         4.71748315937592   -0.40843320629017   11.91506806398424
H         3.74456450884102   -0.01677477366271   11.65914249442626
C         5.83278013210087    0.43103691970440   11.86539750990550
C         1.43566234059104    1.26530184768080   10.10508411311763
H         0.62160543265515    1.86884791115774   10.52330889435084
C         1.34451665892731   -0.16269485006690   10.36438900574925
C         1.74239926550715   -1.11368659120697    9.42439008325251
H         2.06096303005366   -0.78655129486680    8.44741120636383
C         1.66802148171387   -2.46068924278033    9.72258194628916
H         1.96352232779896   -3.19146303268940    8.98532795130214
C         1.20821698457595   -2.87540636032704   10.96308864106276
H         1.15780132689001   -3.92790923299670   11.19605004287737
C         0.79217883947428   -1.93849939346089   11.89626886355214
H         0.41687479736890   -2.25976508114693   12.85564282672528
C         0.84242534066094   -0.59060045679273   11.59518665076920
H         0.51481720172237    0.13816653840355   12.32228743892259
C         4.72932102187306   -0.85695674316852    9.12207655406343

