84
CSD_code = MAHGOT | q = 1 | S = 0 | Stoichiometry = C34H39CuN3O7(1+) | MND = 4
Cu        1.04367496211448    8.59334244116440    6.88542154957062
O        -1.40691027248569    8.48669639612248    5.28813422898104
O        -0.95055492879095    7.09945664090082    8.36379579664252
O         1.29435594876203    3.54797702007546    6.29526514398897
O        -1.81003062319654   10.56008348234713   10.59205816410274
O         0.18470209284245   11.32553515267405    6.42507954160903
O         2.98817526261617   11.64153687472472    3.29949762388019
O         1.64635786353363    7.28606413146153    4.37804663678177
N         1.81760863154273    6.98068001662120    7.89821224052061
N         1.31039339621710    9.81634302130565    8.51305415960579
N         2.89521539448091    9.08615108135125    6.14329920222840
C        -0.45126400443056    8.53431132276347    5.91039915292152
C         3.05459035273770    7.22614580713284    8.59812730339680
H         3.39752987211170    6.28855135188819    9.06971422301712
C         2.80503335850773    8.25050857980706    9.70898559186143
H         3.67652815301185    8.26601880896439   10.36605944319274
H         1.93858442152682    7.93698031238266   10.29481238219345
C         2.57373722200750    9.67574534537951    9.19407137081554
H         2.59066851953747   10.34603757881704   10.07128351990168
C         3.69952003491369   10.10479158016445    8.24844500345455
H         4.61823491864067   10.20582290851810    8.82913220964308
H         3.45420288241785   11.07918642901246    7.82110313635909
C         3.96362019839110    9.11036582833230    7.11200386223944
H         4.89793233205300    9.42495524752988    6.61479694238669
C         4.17310203514304    7.69622834563048    7.66124365839293
H         4.25685075514828    6.99804545773353    6.82593537137422
H         5.11107318257512    7.67824270661093    8.21925874050314
C         1.42101918955515    5.78165534126602    7.77470574757603
H         2.06683153000385    4.95653434372393    8.10064822741694
C         0.14376806501481    5.34872876871095    7.24675114777920
C        -1.05513095853779    6.02245572271822    7.54780743952387
C        -2.26150024314129    5.52376796800799    7.06757133643245
H        -3.18773931218795    6.03463095763912    7.27141359497536
C        -2.28086759442462    4.36110689553006    6.32031627342676
H        -3.22254009671028    3.98648849511688    5.94996809939732
C        -1.12042988327742    3.65832103653255    6.05128065950337
H        -1.17440214943790    2.74379125968932    5.48532016200567
C         0.09410537690920    4.14182324074198    6.51960815133155
C        -2.12693883902413    7.61497429772032    8.94784821662622
H        -2.73616495897802    8.15839115360559    8.21844721413455
H        -1.78707600920629    8.30453105716598    9.71724134181701
H        -2.72362751263178    6.82179910261615    9.40771380648486
C         1.32279158910271    2.29327182932019    5.64538212081076
H         0.73290142509221    1.54921548282362    6.18621233013674
H         2.36844656491562    1.99097425393403    5.64154608834999
H         0.96481175860802    2.36976617468141    4.61484410362918
C         0.39641727489132   10.50061140398513    9.06646141274992
H         0.53787588841347   10.87844102068047   10.08691792594280
C        -0.87054231133544   10.87689924603299    8.47341776485093
C        -2.00493284839535   10.95246302291806    9.30680354015045
C        -3.22505320582426   11.36669024427523    8.78902541027266
H        -4.10382482678614   11.41934296447953    9.40918363796000
C        -3.31185953761788   11.72171660308235    7.45511401765897
H        -4.26257901018469   12.03680370603564    7.05370742315208
C        -2.20287944572418   11.69878418829262    6.63039851679725
H        -2.30517740912430   12.00047440085365    5.60133785843048
C        -0.97150483540018   11.28954908588177    7.13128463381967
C        -2.87485363209279   10.68977744455102   11.51234991642679
H        -3.22058863868048   11.72425420184516   11.58015916010739
H        -2.46794360134438   10.38174230257912   12.47377669026324
H        -3.71210575183101   10.03751458804986   11.24853874349665
C         0.19802658650740   12.01903268208769    5.19650817846328
H        -0.32985606220559   11.46519624041834    4.41351165354567
H         1.24828146803859   12.10775687775532    4.92812923331411
H        -0.23711045837258   13.01755284296529    5.29831360788374
C         3.11641344958685    9.56356014945950    4.98849172376796
H         4.06534282582461   10.07419843530789    4.78167611080109
C         2.22933234092218    9.49698941027059    3.84575300959481
C         2.21913166577708   10.58060718997162    2.94361901169531
C         1.42649788098334   10.53322499817930    1.80446935652598
H         1.39914652027836   11.35652357473609    1.11091873886883
C         0.66211675347871    9.40791789242894    1.55461643145366
H         0.04139269883743    9.37675625716854    0.67250785347007
C         0.69104707512508    8.31564486289005    2.40115879352433
H         0.09632008277677    7.44920632303840    2.16418938243509
C         1.48221902736124    8.34229171351251    3.54483560349297
C         3.10025390383492   12.73169135397672    2.40698659239830
H         3.48813195651840   12.41469646299324    1.43567997076443
H         3.80728928196608   13.41671520693487    2.87151514062232
H         2.14038092873847   13.23857191478801    2.27350454819548
C         1.18494280133864    6.02131035042677    3.95600297357667
H         0.09329613488403    5.95277324824866    4.00065881633939
H         1.61857018941105    5.30978560010907    4.65494225659938
H         1.52699493585697    5.79080073780268    2.94287209968365

