60
CSD_code = MAHGUZ | q = 1 | S = 0 | Stoichiometry = C28H12CuF15N3O(1+) | MND = 4
Cu       -0.00014015860257    5.91282662064178    4.97883801643275
C        -0.00009167733925    5.91258706247973    3.16722990855672
C        -0.83971531750196    4.68810220832688    7.56426830773229
H        -1.38386744233472    3.87927581840112    8.07646140208485
C        -1.45522009835200    6.02447963983335    7.99252947793155
H        -1.52484636788563    6.03211820035387    9.08086528678007
H        -2.46581367136973    6.10384189912921    7.58740678694526
C        -1.51753305503282    3.48234250673910    5.67791624301322
H        -1.81503415971266    2.66137564384201    6.33835445532541
C        -1.78469206327198    3.24872484894546    4.25924372634188
C        -2.36633469123817    4.20994787324193    3.43205202458250
C        -2.63790298584234    3.94933264543683    2.09377585001280
C        -2.32449229610076    2.70357871166113    1.54941133654468
C        -1.75605133594919    1.71977977176423    2.36163667315684
C        -1.50550745996875    1.99727696032774    3.70212600980127
F        -2.71759873944465    5.40244496919551    3.93666997767171
F        -3.17808405033885    4.89942772538613    1.33633998603892
F        -2.56735727311801    2.45712869486775    0.27487658985207
F        -1.46169135661930    0.53178004009765    1.85830962776387
F        -0.96105353899004    1.06351740299656    4.47568048213078
N        -0.98251880768257    4.53193838630691    6.13723353415925
O         0.00216026318142    5.90933985992748    2.03107614638893
C         1.48019162425107    5.79741814514144    7.56420596799034
C        -0.64047370058885    7.25189150194286    7.56455242536232
H         2.45276180205518    5.73051829991408    8.07632945478138
H        -1.06878470598327    8.12747820813550    8.07694184410442
C         0.63059799342369    4.59614861544512    7.99230576708202
C         0.82470784514373    7.11667060996157    7.99247432274201
H         0.65875877590796    4.53194402090592    9.08063580408346
H         0.86639768992475    7.17298735885877    9.08080704311823
H         1.06716623625784    3.68129262542226    7.58712949874011
H         1.39866385265653    7.95223027269085    7.58733657398877
C         2.86331382154021    5.81345340317946    5.67786927272014
C        -1.34614165093580    8.44181218899804    5.67827552320199
H         3.72300449897922    5.96626924005110    6.33835810945749
H        -1.90842412261126    9.10990690145596    6.33870163284212
C         3.19933988104215    5.69882231673183    4.25923300382446
C        -1.41497873167407    8.78989694686953    4.25956958176869
C         2.65768818628072    4.71454898670155    3.43199080714066
C        -0.29178106613117    8.81308402594642    3.43226884291647
C         3.01948974807755    4.60944392770002    2.09381834674909
C        -0.38187755618346    9.17847096823376    2.09396957067528
C         3.94188388025636    5.50356753577570    1.54957732294979
C        -1.61754410575706    9.52968037817547    1.54967932911631
C         4.50959516700648    6.48777655977520    2.36181682239554
C        -2.75369298526715    9.52913422613029    2.36198886434603
C         4.14379104727103    6.56613392710714    3.70223847686853
C        -2.63846894320783    9.17352798558808    3.70249878099839
F         1.80009084460622    3.81447388407360    3.93644928081069
F         0.91669391433400    8.52142130262577    3.93683686423725
F         2.46686413890147    3.66656732862883    1.33635876857465
F         0.71095209354490    9.17141353871254    1.33643543049600
F         4.27700702037830    5.41630494331986    0.27512191396053
F        -1.70970001936172    9.86315856578867    0.27513099569542
F         5.39140001979448    7.33659404737650    1.85856747210153
F        -3.92981874173727    9.86794240946668    1.85873002868133
F         4.68022761529199    7.50447881858811    4.47584403605568
F        -3.71930892247351    9.16871531721081    4.47611843148072
N         1.68680563317233    5.75196935367386    6.13714709410850
N        -0.70451179466919    7.45378382379785    6.13758484458477

