71
CSD_code = MAHLIR | q = 0 | S = 0 | Stoichiometry = C28H28N6NiO6S2 | MND = 6
Ni       -0.00004292965458    0.00002509557424    0.00000761009813
S         3.49424620056543    2.62845290359549    2.12442413179066
O         0.27596453056257    0.90825178577007    1.66196364794403
O         4.65380011492872    1.86650556476549    2.49498492390462
O         3.72496835320769    3.82633413529122    1.36404705544066
N         2.41103334333308    1.65703890334385    1.35767530024674
C         1.28620139453022    1.56377528684125    2.01496582683930
C         1.25650953597917    2.31659163940301    3.30508346822098
C         0.22085662592549    2.38197182105295    4.22309446676316
H        -0.70337256515238    1.85626686290527    4.03895893881937
C         0.41514338508219    3.12544640624087    5.37791482953245
H        -0.37475758056883    3.18829368573105    6.11179496611272
C         1.61341307158579    3.78704095933760    5.60659695018614
H         1.74360381302422    4.35713816175606    6.51417061474468
C         2.65080085444442    3.72029614441028    4.68243521011067
H         3.58817842272909    4.22673770486327    4.84888220385435
C         2.44746556731072    2.97792537652666    3.54428887688770
N         0.50886788996802    2.07454856146604   -1.12400712800037
N        -1.87259696261706    0.67280351634872    0.04820794729625
H        -2.36903358938343   -0.13492425202239   -0.36587037245568
H        -2.14629328807939    0.76033343003193    1.02629971804901
C         1.74552049784238    2.16379651088364   -1.60761663948334
H         2.11123222045677    1.28283702638144   -2.11934162660912
C         2.52996942011603    3.29673122734212   -1.51043372980263
H         3.53095215461154    3.31037488634340   -1.90898159463712
C         2.00652459860910    4.40392883554674   -0.86196743165240
H         2.59602128536221    5.29678543768009   -0.73135014305236
C         0.70718176631518    4.33542085869992   -0.39583366516137
H         0.25069896373235    5.18415871941994    0.09205665274861
C        -0.01719899957044    3.15738118386921   -0.55550639412061
C        -1.45512024481037    3.10078240869814   -0.10057086723024
H        -1.94957386277123    4.02478504333295   -0.40944203258483
H        -1.47506707777423    3.06625518402917    0.99277479354824
C        -2.22295530009346    1.90217294812281   -0.65827579838594
H        -3.30237966335363    2.09206951765931   -0.56856395777099
H        -1.98225129472306    1.77366347267741   -1.71584325075677
O        -0.27603476392046   -0.90814662669963   -1.66195519038156
C        -1.28621693348818   -1.56373808366518   -2.01498632157560
N        -2.41106875834554   -1.65707459845163   -1.35774183583114
S        -3.49416405097380   -2.62860183790430   -2.12452120453829
O        -4.65377496387640   -1.86677102604222   -2.49514927388218
O        -3.72481267410453   -3.82648718669127   -1.36413378694053
C        -2.44728998896477   -2.97801425213869   -3.54433742951226
C        -1.25640482329883   -2.31656893441176   -3.30509217377602
C        -0.22069706812705   -2.38187682499037   -4.22304558589486
H         0.70346706561884   -1.85606598114415   -4.03888115433721
C        -0.41485308114715   -3.12540427193068   -5.37785221664592
H         0.37508264019771   -3.18817562804496   -6.11170249413490
C        -1.61304938599814   -3.78711538680930   -5.60657650718980
H        -1.74314096110289   -4.35724716174998   -6.51414385923595
C        -2.65049465973016   -3.72043652859857   -4.68247465472276
H        -3.58781244032912   -4.22698004149670   -4.84895363285073
N        -0.50899026539529   -2.07449536321696    1.12401545349544
C        -1.74562690780177   -2.16371600300125    1.60767118277364
H        -2.11128766140943   -1.28275858355125    2.11943508963220
C        -2.53010114451265   -3.29663684968743    1.51052814754233
H        -3.53106024925237   -3.31026234551123    1.90913419433193
C        -2.00670210942421   -4.40385121427171    0.86205094221275
H        -2.59621837232323   -5.29669756765338    0.73146729486547
C        -0.70737643117939   -4.33536926958151    0.39586944790931
H        -0.25093159225788   -5.18411930401300   -0.09203301344838
C         0.01703480968714   -3.15734459225400    0.55550586375457
C         1.45493937936750   -3.10077355339139    0.10051732298144
H         1.94937789662792   -4.02479627955080    0.40934978757090
H         1.47485031199400   -3.06622125120534   -0.99282879180161
C         2.22282777049384   -1.90219906279856    0.65822621974817
N         1.87249272814635   -0.67280274624291   -0.04822101037092
H         2.36895479715529    0.13490465990255    0.36586948035190
H         2.14617156976313   -0.76031570139537   -1.02631951309317
H         3.30224328501662   -2.09213262729837    0.56848264936636
H         1.98215638122994   -1.77370492844489    1.71580307219018

