62
CSD_code = MAHLOY | q = 1 | S = 0 | Stoichiometry = C27H30AgN4(1+) | MND = 4
Ag        7.57281593825677    6.91856465295553    7.52177862795990
N         5.24979327654631    7.71698009350289    6.83069898788407
N         6.12680402708518    6.62757257193697    9.37817270345289
N         7.76117224293453    9.20041485366031    6.89912398800766
N         6.86838008546095    5.59512012230739    5.68620637497914
C         4.32129035581045    7.33352561188307    7.88989126736111
H         4.03450099446168    6.29235235429547    7.73476912405009
H         3.40723488252087    7.94525255219755    7.86341037173809
C         4.94536603368767    7.43869953718936    9.28776405714799
H         5.24726517746109    8.47157885626059    9.48376093646004
H         4.19011259663158    7.14807138237986   10.03217229289289
C         6.19643365214189    5.70920387757910   10.24935730251498
H         5.36136676746279    5.50841329313614   10.93041904074769
C         7.36512209605619    4.86140362361918   10.40354428220295
C         7.24617386956066    3.62504639369132   11.04031257089775
H         6.28419924895463    3.30829966165325   11.41549900289046
C         8.34801092423749    2.80183154432804   11.17745988217255
H         8.24687306209684    1.84437485536933   11.66439809604676
C         9.58384305100169    3.21005404659795   10.70151137631687
H        10.44521325320970    2.57087332196050   10.81919524223294
C         9.71714040187059    4.44746435643171   10.08855210320989
H        10.68741415006911    4.77335337299788    9.74588248632656
C         8.61684986600629    5.26788830363638    9.93470062091402
H         8.72365043851174    6.26677865638112    9.50894093568648
C         5.32597615169071    9.16702921841062    6.68154318302203
H         5.23540159108604    9.61925398808745    7.67029287287976
H         4.50591442885968    9.55003793117230    6.05581381974730
C         6.66063168118613    9.62768033242278    6.08137248123859
H         6.79916027912953    9.17778129598034    5.09390719628479
H         6.63632024627662   10.72079069987569    5.96556628338263
C         8.57609655879102   10.05841045711917    7.35457925576571
H         8.44633307233288   11.12737106071473    7.14928378964501
C         9.72026304116002    9.70216159113457    8.17393158797797
C        10.32707897722560   10.67185045499263    8.97391742114350
H         9.94109178336836   11.68053397490806    8.97512770989185
C        11.40639149095226   10.34265523741828    9.77215000873946
H        11.86564905427611   11.09592867351197   10.39334922910722
C        11.90535101287259    9.04979838146742    9.76714285883091
H        12.75380858149924    8.79653923517008   10.38387404717941
C        11.32324446238621    8.08433782993993    8.95848258261925
H        11.73201318575811    7.08567425540180    8.93845885954966
C        10.23646985918858    8.40410709526870    8.16909048743870
H         9.80786659439729    7.66744430160906    7.48696866031008
C         4.92034078753839    7.06253144001432    5.56814535524347
H         5.38835006640372    7.62235227615499    4.75707947903580
H         3.83452837356764    7.05337542275417    5.39156645732439
C         5.44478771497092    5.62199969548271    5.50004179717609
H         5.00169315018687    5.02601508845325    6.30296658705714
H         5.14883528643885    5.18498946642423    4.53551648342609
C         7.61281337276055    5.10862008989902    4.78282310853105
H         7.19091165838206    4.71346724489116    3.85141620831346
C         9.05804159342257    5.04603176262325    4.90688047638208
C         9.84588901580776    4.93879968146720    3.75978565651273
H         9.37270889648835    4.89534000921154    2.78982666753811
C        11.22399309606580    4.90586972461772    3.86032328916328
H        11.82665533859678    4.83110854245197    2.96860435582856
C        11.83093427957713    4.95584040700196    5.10524122143978
H        12.90657978389792    4.91912970453683    5.18249372066065
C        11.05548630531173    5.03562807057507    6.25283181197100
H        11.53220507675479    5.04411929145652    7.22121254626924
C         9.67835183273143    5.08578721320573    6.15814772895763
H         9.05930592661751    5.08869095822383    7.05622304032738

