77
CSD_code = MAHNAL | q = 0 | S = 0 | Stoichiometry = C38H33Cl2NP2Pd | MND = 4
Pd        3.37510489925201    5.44605834448072    1.63987296282678
P         2.11962395829966    6.86589339637862    0.46370793534630
P         3.33785340649049    3.71675127466036    0.20623799456620
Cl        4.31614702071036    3.82878239727482    2.93384053568112
Cl        3.71676182935140    7.04904082098388    3.21221024298937
N         2.42547261695665    7.05303763604614   -1.17106688916252
C         2.42582910730486    3.76092081071257   -1.38836448909243
C        -0.33837809944771    5.53281688003030   -0.21803235800234
H        -0.15142597263379    5.74707288056168   -1.25987645779372
C         2.32882740256721    8.73042998697520   -2.95536890488715
C         1.54753356964298    7.82697363132446   -2.03593226934625
H         0.90533175578676    8.43404179707396   -1.38837521499948
H         0.90258138377290    7.17243162929654   -2.63630722629193
C         1.62267466784922    2.69156775821671   -1.77259102768323
H         1.51155469010774    1.84373291215692   -1.11212502774120
C         0.52635405203749    6.00533853640969    0.76082647939783
C        -0.81228251098257    4.93003065675698    2.45363299454610
H        -0.99305436764033    4.68691261409963    3.49026719637603
C         3.30589696806701    6.09735589124608   -1.83434000766838
H         4.11285987545716    5.84814308150218   -1.13184258039540
H         3.74547338965375    6.59003258332047   -2.70796501878519
C         1.78835861836935    8.57045337399388    0.99162047452496
C         2.56064729283908    4.85639328543805   -2.25023649358038
C         0.29426952707346    5.68047517129384    2.10263260412442
H         0.98955102304300    6.03511363079944    2.86844419078686
C         0.51438499741925    9.06087690825879    1.24840960137014
H        -0.34690073933147    8.41406363638047    1.14303424288028
C         2.80436184688608    2.14390175074953    0.93331516361338
C         1.92388704422717    4.83240478082050   -3.48403415563003
H         2.06839395324700    5.65834320281206   -4.16639527940070
C         2.89905173267975    9.39340248110028    1.15230112170100
H         3.88580490568448    8.97633758900498    0.99346454703463
C         5.03496394924341    3.48567705433425   -0.40502877600938
C         3.59311054232776    1.00427647808039    1.01111642767457
H         4.58935216838946    1.00273181830577    0.59365933797585
C         1.54030456410082    2.15801529549975    1.52110868644118
H         0.94946665635131    3.06723128161397    1.47900706749234
C         5.33421912621334    2.53068411766958   -1.37280310408902
H         4.54639044642786    1.90453380973746   -1.77049223576718
C         2.73486768005738   10.70562045871326    1.55073017121540
H         3.59607799566985   11.34307930215951    1.68462720475870
C        -1.43681744964327    4.76697633587247    0.13961889224160
H        -2.10241764570509    4.39739816291874   -0.62690656908343
C         3.33038120334121    9.54671559404496   -2.44492935791173
H         3.53613452656102    9.52428612028688   -1.38533883856229
C         4.05344937553387   10.37558517272782   -3.28248352393263
H         4.83013650882221   11.00552218669187   -2.87502800007394
C         2.78239525488119    9.59389819181840   -5.15611890205822
H         2.56419641652259    9.61013554806486   -6.21382549391515
C         2.06183498024072    8.76097152322746   -4.31729563793224
H         1.27884000316567    8.13601926805847   -4.72508946997204
C         0.96529897763119    2.69700709214035   -2.99000370951923
H         0.34080395138049    1.86046948709710   -3.26630893476832
C         3.10527822938524   -0.12002416930691    1.65506390765329
H         3.72076515956764   -1.00512810291681    1.72271995680867
C        -1.67820725545702    4.47123052908029    1.46993729889614
H        -2.53586072368950    3.87405803335120    1.74232720013682
C         1.46184272241356   11.19762628743663    1.79525002192240
H         1.33207149869685   12.22137063116373    2.11404046008330
C         0.35620119521515   10.37713331386059    1.64701462243388
H        -0.63337471506504   10.76090646612303    1.84847776616437
C         7.63496471268973    3.21002008037230   -1.31995148767902
H         8.64997270785125    3.09427054302220   -1.67012719554296
C         1.12588169622109    3.76370190590366   -3.85583292973689
H         0.63383961310337    3.76497828915620   -4.81711474651014
C         3.78178491581239   10.40049973199920   -4.64068537524849
H         4.34641922987899   11.04752644410666   -5.29519566251094
C         1.84287959890183   -0.11053767718182    2.22380377554700
H         1.47340835279612   -0.98940537167869    2.73125483093100
C         6.63491805416942    2.39187081210611   -1.82168528848180
H         6.87006209779589    1.64406940510315   -2.56500995515409
C         6.03759498917870    4.32258313500151    0.08073519653982
H         5.79685241362341    5.08293405249670    0.83544161729867
C         7.33562111925038    4.17876224683665   -0.37526819662071
H         8.11533012875602    4.82002847338577    0.00764156319562
C         1.06003540490889    1.03221538779297    2.15989744299634
H         0.08197977774955    1.04754392356809    2.61818505535542

