58
CSD_code = MAHNUF | q = 0 | S = 0 | Stoichiometry = C23H25N5NiO4 | MND = 6
Ni        6.70987027065224    2.64640484705165    6.08898709851166
N         6.15219060987494    0.62662332194612    5.80785426246172
N         6.30892880971420    2.72121937602180    4.35337371180222
N         6.39084649785708    3.85503979264457    3.70043057285712
N         4.62955477440688    3.18139218631816    6.81898489468326
N         8.88617617901108    2.33383555997445    5.59681586212659
O         7.03284997748916    4.81681372850696    5.65921092398800
O         6.09198695972177   -0.43132879454106    6.66425715112525
O         7.19748410898790    2.67407861448835    7.91149137240346
O         6.41517103323503    0.82975842840918    8.89249602770176
C         5.56646513977765   -0.90657002243997    3.96976129302515
C         5.91197472988135    0.42712205985223    4.55398632926185
C         5.98741890563223    1.61478588193149    3.73899352005651
C         5.70117068214985    1.57112261539144    2.27023654828599
C         6.77187268576530    4.90167250047361    4.43905087366089
C         6.88416657793039    6.19508014342583    3.73032831846117
C         6.55759140124321    6.31973951201229    2.38278709743940
C         6.67587212518224    7.54427731584486    1.75308812071116
C         7.12018353051351    8.65182841924905    2.45867779760887
C         7.44565252375416    8.53408575707927    3.80040912362171
C         7.32791374051456    7.31205723281630    4.43390187105510
C         4.63094507260449    4.29688860082223    7.54733151178488
C         3.78370493357548    4.49507060105641    8.62523691340884
C         2.89111868198348    3.49302235640378    8.96805299728679
C         2.87226253897248    2.33959410339347    8.20142384094660
C         3.75534479760976    2.23070535914451    7.14044561762094
C         9.68702637620052    3.24978836821142    6.13463472812997
C        11.05211014031030    3.05945565176394    6.28006370334352
C        11.61091514637549    1.86706097473385    5.85133203228066
C        10.77779817350316    0.91422239939787    5.28729810154727
C         9.42524534617130    1.19246030562560    5.18118332470319
C         7.32481221151925    2.55537006844707   10.26100773573054
C         6.94022959491994    1.95263919490216    8.90876080080602
H         5.55729942338548   -1.65270353373499    4.76017855440157
H         6.29622675612942   -1.19371448483890    3.21455901554801
H         4.58634533440525   -0.87101063823805    3.49755606851268
H         5.84251594178580    2.56424335051298    1.85440530325915
H         4.67655572053177    1.24894818891720    2.08915121427866
H         6.36980635641832    0.87198450185794    1.76992835679411
H         6.21222385178919    5.45055077744881    1.84587727738693
H         6.42127840796394    7.63991914557995    0.70736121694812
H         7.21185164873136    9.60709555605774    1.96225737558008
H         7.79118938686687    9.39752493203024    4.35034238075618
H         7.57594709918826    7.19833797845999    5.47869792509630
H         5.34811429846392    5.05213631023910    7.25398341415474
H         3.83053243611199    5.41463584249578    9.18796892170095
H         2.22468336145672    3.60800105185707    9.81078617395367
H         2.19257459004681    1.53234346011597    8.42514546863898
H         3.75764064888557    1.34248825463077    6.52294021117357
H         9.20693181229490    4.16457067368674    6.45576967303889
H        11.66204008028107    3.83146308133770    6.72266200505980
H        12.67070784399143    1.68301348207622    5.95254497325763
H        11.16720009066772   -0.02939604576600    4.93776171853652
H         8.74971673075203    0.46923273125277    4.74297831464191
H         7.93704384533947    1.84523549903817   10.81072759239100
H         6.41607788444265    2.73828015942260   10.83041127766370
H         7.86243219512476    3.48738264231776   10.11514875594457
H         6.21820997790262   -0.00417937711967    7.59046273284514

