33
CSD_code = MAHPIW | q = 1 | S = 0 | Stoichiometry = C13H16N3Pd(1+) | MND = 4
Pd        1.83970081981064    7.58799589897450    2.50987559866500
N         0.57656193778553    6.64510521176669    1.28070494450936
N         3.13499551359738    8.67125965974357    3.77438679636455
N         1.30969668791109    6.63935277107255    4.55581150466915
C        -0.32433084032410    5.75232482910405    1.68383083773655
C        -1.22499945373194    5.15707432560352    0.81873725478949
C        -1.18757885051693    5.50996165126312   -0.52353604866854
C        -0.25385207442192    6.43694979319427   -0.94453840474921
C         0.62909389243570    7.00017546286234   -0.02284356885988
C         1.66656269766436    7.97871278214618   -0.33002683017707
C         1.94744466003727    8.46219090391936   -1.60759004463980
C         2.97492867575771    9.36752233264927   -1.79270847223949
C         3.73230888039767    9.78712973340194   -0.71311988650216
C         3.45800575563161    9.31541215165401    0.56685795436335
C         2.42226219543020    8.41918005749347    0.77546539116424
C         2.70994318801239    8.53965967299272    5.17722690998251
C         2.37899670743607    7.07535585897367    5.46707176984040
H         4.06866196185128    8.26617572403506    3.65476955489267
H         3.18806253799011    9.65820442065306    3.51593380622360
H         0.42308516880316    7.05614904984811    4.85332966940737
H         1.20743497240582    5.62656615744595    4.61184870796242
H        -0.33192058876327    5.49655790152022    2.73852908586451
H        -1.93744502221453    4.43780672754912    1.18774075049357
H        -1.87673102792081    5.06779559299685   -1.22567944206470
H        -0.20668595663472    6.72883218608622   -1.98038034038769
H         1.36984795011750    8.13131820456615   -2.45643297044459
H         3.19092404741739    9.74232012919091   -2.78089702839794
H         4.54239385869245   10.48523606778477   -0.86028573378754
H         4.08206269783299    9.66554851996886    1.38116662483218
H         1.81449775768107    9.15296919147157    5.32476191592416
H         3.48603884859554    8.88855171560252    5.86867743704860
H         3.26370712341335    6.45712208926433    5.27999498626012
H         2.09542527781539    6.96348322520100    6.52091726992426

