31
CSD_code = MAHRAP | q = 0 | S = 0 | Stoichiometry = C10H10N4O6Zn | MND = 6
Zn        1.62516761758941    5.85440025014510    4.79959056706432
O        -0.43443894823436    8.33561762910875    7.06159359556556
O         0.21507448214324    6.52234479219571    5.93720553581978
O         0.05579420415310    5.92177412400797    3.17204622752139
N         1.14492973565486    3.82827364944846    4.90723536279057
N         0.16957686869023    3.25697627325031    5.55397577815166
C        -0.19407403737865    2.03354840504891    5.23528091957330
C         0.42735402341461    1.28937835748145    4.22834340009739
C         1.47488592262028    1.89268420520294    3.56694568353209
C         1.79621366164702    3.19790238718255    3.94470590172291
C         0.29878960090477    7.73049814802663    6.30477023309858
H        -1.01478480712037    1.63434716123037    5.81369222212496
H         0.09859034428908    0.28887423975219    3.99185936792758
H         2.04561123049260    1.41912833247511    2.78287315886148
H        -0.71527934048954    6.13679470893999    3.71052359511831
H         0.18184582679613    6.63201799517971    2.53553331159796
C         1.45595663546975    8.51079384145295    5.65385909598163
N         2.10488365712630    7.88043449761040    4.68974583075484
O         3.03718290246397    5.18660996308809    3.66391171378761
C         2.95476954075634    3.97830886897558    3.29639852088191
O         3.68993274656170    3.37336343517439    2.54142981197576
O         3.19464690199602    5.78864004213017    6.42714644191167
H         3.96537081347613    5.57441844122210    5.88773782855792
H         3.07003738409063    5.07785212540971    7.06333705714679
N         3.07880988330936    8.45166049307622    4.04077935136964
C         3.44354024590838    9.67492118426052    4.35890197190780
C         2.82457308026604   10.41906946712162    5.36737985028582
C         1.77836191767078    9.81592386014857    6.03101019626990
H         1.20947603164354   10.28945852246201    6.81643100521984
H         3.15410887321344   11.41945175019788    5.60330439965085
H         4.26299300087539   10.07403284899209    3.77865206373082

