31
CSD_code = MAHSOG | q = 0 | S = 0 | Stoichiometry = C13H12Cl2N2SZn | MND = 5
Zn        6.30325547452638    2.86025401133141    1.95438739568696
N         6.26152713565407    1.03326518654048    0.73977330176917
C         6.66443060454982   -0.15102063738072    1.15279068580559
H         7.22335311900178   -0.16169998717285    2.07804655974886
C         6.40225886701373   -1.31681466317750    0.44260794211101
H         6.74566116947187   -2.26795794789119    0.81608733054813
C         5.69400893868208   -1.22657361942599   -0.74552920319264
H         5.46996642702005   -2.11098487017025   -1.32302737422573
C         5.27786716176191    0.01969069105980   -1.18236495452266
H         4.72528587199567    0.13262088169984   -2.10265759397618
C         5.58106292342518    1.13743323026308   -0.40432096939452
C         5.15595438576200    2.46767678527654   -0.78857183782162
H         4.59352589980791    2.55421487992622   -1.72001332516805
N         5.44539797263694    3.46598114467134   -0.05112098538056
C         4.99051804359094    4.75142820005787   -0.25142540108023
C         3.84268253540266    5.05955946181216   -0.99150099194124
H         3.28686034337032    4.26652465039577   -1.46775948566085
C         3.37947142096117    6.35649100755160   -1.06572080580003
H         2.48653526478936    6.57224406643556   -1.63247950628656
C         4.04331365489251    7.37624575777442   -0.39902477960847
H         3.67330293748675    8.38844202085991   -0.45001647890340
C         5.17468767257897    7.09026483333807    0.34364123176820
H         5.69471345290370    7.86659704141035    0.88229038707632
C         5.65479212177860    5.79259634583746    0.41603387897390
S         7.06879341653981    5.47256766044697    1.44710139108792
C         8.30333990599927    4.88648743474285    0.23956435723725
H         8.77910501626099    5.75186066556428   -0.21215832485382
H         7.83114792201767    4.26507207320363   -0.51272887965876
H         9.02376885484549    4.30267825147861    0.80494752250949
Cl        4.31294614179119    2.65159926140359    2.89988034071706
Cl        8.35426534348118    2.40445618213640    2.74376857243651

