54
CSD_code = MAHVAT | q = 0 | S = 0 | Stoichiometry = C21H25BrClN3NiO2 | MND = 4
Ni        5.97401482231130    7.18880147445574    2.66318589815197
Br        0.43487643238766    8.10636753584047   -2.08603740782719
Cl        8.81911190842416   12.89918252212956    8.22522736944412
O         5.04936696074730    6.39664056231854    1.33075524728583
O         6.88109925342289    8.09584494599624    4.00945269917516
N         4.98429177026776    8.76446186469295    2.52872438439951
N         5.40732997152864    9.71010121708917    3.41231192593519
N         7.13356427917122    5.42999689124365    2.89260664064322
C         4.06003824247023    6.82836226344640    0.62622037692063
C         3.51722510605284    5.95781251774676   -0.34980745731074
H         3.96631566810783    4.98121694813809   -0.44943851178340
C         2.46390831501892    6.32223410216974   -1.14334329281640
H         2.06539462896972    5.64181268587961   -1.88013557076634
C         1.90939752364966    7.59034513674607   -0.98509378210949
C         2.39885509782462    8.47346248095984   -0.05774624808802
H         1.93996342692143    9.44418292461613    0.03111667303828
C         3.47983176262161    8.12632227975538    0.76878021094399
C         3.98783037138707    9.06263292397988    1.73493481662713
C         3.36100535694837   10.42316343810678    1.83762787249117
H         2.31155590789582   10.33471171402795    2.11184643067422
H         3.43350294277240   10.94525155988365    0.88576227248370
H         3.88324322809517   10.99259320654363    2.60035358323297
C         6.40073893258010    9.28104420436881    4.14563069370769
C         6.98369708775322   10.18393393860643    5.15017550536280
C         6.49458119484485   11.47641306236127    5.32596996270373
H         5.67304026810117   11.81239401053609    4.71467242399599
C         7.05646706751365   12.31210739964643    6.27022913298397
H         6.68214830972735   13.31406448918062    6.41068733040706
C         8.11369772830726   11.85401184101995    7.04346729643823
C         8.61279743598803   10.57056478896066    6.88206746428614
H         9.43536729828888   10.23067909956122    7.49174107551936
C         8.04514164554596    9.74084666372192    5.93570922854543
H         8.41620466729646    8.73750346967624    5.79190572408738
C         7.79343765837366    5.21683294545196    1.59262226861682
H         7.01145321589484    4.98457085330452    0.86681040686186
H         8.48232194512090    4.36515206438071    1.63634328538280
C         8.51805132324027    6.47478230814368    1.12481960282952
H         7.85206953698020    7.34172102910301    1.26810377205921
H         8.75660141036490    6.39716216671611    0.06750613577624
H         9.43976897256352    6.64679297714305    1.67439930950021
C         6.17365625273025    4.34616642757944    3.16684283364208
H         6.69258536648645    3.40360647956106    3.37651210693214
H         5.57390893804258    4.20978374823119    2.26490566757241
C         5.23431308160358    4.71107536556851    4.31201927207013
H         5.71511221836018    4.62587367186479    5.28304763500087
H         4.36258952024178    4.06202424284837    4.30088816287606
H         4.89537779756852    5.75097030471137    4.17401900643812
C         8.12252883947589    5.56013991305355    3.98449034252496
H         7.57146146960276    5.77526658939270    4.90006836189680
H         8.73473807353990    6.43641698394459    3.77134722019734
C         9.04352324339393    4.36338694631914    4.22955258200426
H         8.49008305911714    3.46041689388004    4.47240816093373
H         9.68159736425120    4.59757720179732    5.07810227824048
H         9.68801610010307    4.16071672360061    3.37843161986590

