31
CSD_code = MAHVUP | q = 0 | S = 0 | Stoichiometry = C13H12Br2N2SZn | MND = 5
Zn        0.61966047395900    2.18013881986103    6.83742579171706
Br        1.01008336651639    0.19138135830080    5.65319322629731
Br        1.61496931195230    3.84582455615465    8.29699531101471
N        -0.37661761951786    1.37148012611022    8.66533905042317
C         0.21770009250837    0.78481939949475    9.68614285580904
H         1.19444307268234    0.36297821029511    9.49049782063326
C        -0.35855423604446    0.70767105041366   10.94722532506389
H         0.16682113476515    0.22113191775887   11.75272681815622
C        -1.60898727428847    1.27330806147925   11.14254276209609
H        -2.08368974162867    1.24196366713522   12.11146827588870
C        -2.24089707311743    1.87971288101164   10.07076017642821
H        -3.21515017799656    2.33134215219991   10.17806023603507
C        -1.58922645830490    1.90873590071436    8.83810272421786
C        -2.20672753748271    2.50014079906171    7.67010151428785
H        -3.24417701747618    2.82443212962546    7.76969739869443
N        -1.55217261548806    2.62363487987095    6.58185744460221
C        -2.13269310455369    2.99833896175128    5.38461104899952
C        -3.45274654579809    2.65890266728896    5.06764885237343
H        -4.05132658879324    2.12777816071910    5.79278611435778
C        -3.96951669417241    2.93478948187753    3.81840048954812
H        -4.98662880618138    2.65500872709904    3.59022606707935
C        -3.18371936793615    3.54875911722020    2.85528235737207
H        -3.58543141761479    3.75465747839292    1.87557063361929
C        -1.87470730939247    3.88676677149738    3.15094486961602
H        -1.24328473315589    4.35526818091594    2.41217913524081
C        -1.35050337402808    3.62086690485176    4.40325264228190
S         0.33547772892712    4.09908582253382    4.73716248029555
C         0.01716215159470    5.59696184519286    5.72505737650292
H        -0.44662336681407    6.34082866871089    5.08416774996853
H         0.98310050061302    5.94583332390166    6.07579759330440
H        -0.61663677373282    5.36585797855853    6.57527585807660

