31
CSD_code = MAHWAW | q = 0 | S = 0 | Stoichiometry = C13H12Cl2N2SZn | MND = 5
Zn       -1.04334894714923    2.90798622257930    4.49917293760886
Cl        0.95820370115533    2.71340637360294    3.57406594045868
Cl       -3.08525696768395    2.44611498464894    3.69073035151657
S        -1.81911592601234    5.51772130095559    4.99822966656947
N        -1.00828201654359    1.08091546662395    5.71548552867621
N        -0.20374460200623    3.51618545278662    6.51225987022939
C        -1.41058190107350   -0.10370628050204    5.30271358317597
H        -1.96278516562082   -0.11584491032448    4.37328302612361
C        -1.15698838459144   -1.26787811405959    6.01864501183272
H        -1.50113249540643   -2.21920383029610    5.64615397773531
C        -0.45599091642291   -1.17583532232897    7.21096253378984
H        -0.23877658638580   -2.05904146928910    7.79292977563651
C        -0.03930778375066    0.07065182439096    7.64675306625663
H         0.50776331069017    0.18471738530377    8.57023589598765
C        -0.33597122124756    1.18705617792035    6.86425232704780
C         0.08567333084812    2.51801441905489    7.24999240139348
H         0.64448133758922    2.60494234277253    8.18356124192122
C         0.24627947082876    4.80300218973039    6.71531514136737
C         1.38573476958118    5.11550868160346    7.46657339943047
H         1.93895499890735    4.32488789726838    7.94978124796836
C         1.84398334546044    6.41395042737459    7.54458911493737
H         2.73038879638162    6.63303368343791    8.12028316128479
C         1.18367415485220    7.43124216668825    6.87055559913859
H         1.55070383473780    8.44446167837581    6.92341815798177
C         0.06085079651378    7.14106422550634    6.11681451032321
H        -0.45640778649961    7.91520314290477    5.57212351734301
C        -0.41452499161134    5.84177718241277    6.04077766305107
C        -3.06326085667715    4.93473484887648    6.19735923852652
H        -3.53607788752107    5.80131882913859    6.64982898512728
H        -2.59874666233625    4.30773344997021    6.94979183016249
H        -3.78429074900549    4.35737957287348    5.62626129739750

