74
CSD_code = MAHXAX | q = 0 | S = 0 | Stoichiometry = C27H36N10Zn | MND = 4
C         2.83095764004664   -0.05614931703571    9.02321056127616
C         2.53276042822248   -0.39717137215249   10.35543523213096
H         1.61553807313982   -0.90974447292018   10.59499635799782
C         3.40350990800254   -0.09889306002841   11.37379487928872
H         3.14368653672227   -0.38134677552574   12.38487147943819
C         4.62468346780180    0.55013235109442   11.14065997644548
C         4.91612750236419    0.89653928443389    9.81203231888879
H         5.83458252692858    1.40957183959996    9.57759430145021
C         4.05118433972088    0.60613698714404    8.78863034366813
H         4.32486481405077    0.90649989886052    7.79132168805667
C         5.50543011397258    0.82245133961572   12.23717523032084
H         5.13187305817927    0.53916095450353   13.21637227379173
C         6.73583253112461    1.37919779618083   12.15476147930807
H         7.15837990964440    1.66020491760194   11.20377929473641
C         7.56068280948248    1.60861217261660   13.28414419522742
H         7.16650509126146    1.31510189972130   14.26499633924887
C         9.50151704956786    2.31577954620020   14.38998415417063
H        10.45159638816401    1.79244902939690   14.25026821286706
H         8.98368307698963    1.88350711309760   15.25983647574292
C         9.80802703569468    3.79753262102503   14.68844172790275
C        10.72502942050690    4.41036520996538   13.60946280340684
H        11.08363191659995    5.38558026609823   13.97185040839242
H        11.58319832939591    3.74730240745669   13.47341936316736
C         9.88329915909699    5.73420316367331   11.87443736549747
H        10.21564494859190    6.60204692417371   12.45753312840109
C         9.25605872401959    6.00740319218071   10.63410167379347
H         8.92362344341094    5.16083045903488   10.05805140976858
C         9.08933378329087    7.27094363456941   10.17406907732717
H         9.45214191993465    8.08645868862742   10.79242308297295
C         8.48831908183727    7.66648047628847    8.93776176975903
C         8.43631547469663    9.02910814579247    8.60495529729964
H         8.84645771199450    9.75389490083465    9.29517816810283
C         7.88706616228478    9.47056087713601    7.42772457555133
H         7.88122359895257   10.52937206843137    7.22687027433108
C         7.34499113402044    8.56435213909155    6.49704458967355
C         7.38919017638518    7.19788268704297    6.83321547766802
H         6.98750481939294    6.45673697423665    6.16360095540940
C         7.94167254238313    6.76398225915280    8.01078662863394
H         7.94452396005938    5.70250843084803    8.20659710371333
C         0.69256574283805   -0.95090161291953    8.26856954120561
H         0.79784467838463   -1.97331695653515    8.64726099365928
H         0.11087696294100   -0.98584225968495    7.35063144821319
H         0.13211756129611   -0.36350461838169    9.00044292002069
C         2.35622535297786   -0.10207250850754    6.63395454567128
H         2.43032650099958    0.97051648561737    6.42814646796013
H         1.60998369328421   -0.52690891507209    5.96704808141230
H         3.31847197358279   -0.56781921913564    6.40657013168309
C         6.27971769964837    8.03934224271536    4.37139286358667
H         7.05897187535060    7.34627482258508    4.04103504837495
H         5.90133182472023    8.56648764696198    3.49909957754580
H         5.45856415465977    7.45984498050791    4.80271934132652
C         6.77946185320490   10.39310474126587    4.98946476058860
H         6.21819766613710   10.96719944721977    5.73266195907708
H         6.29919728402599   10.53155267981915    4.02407090498073
H         7.79364885763666   10.80028999740720    4.92700698422508
C        10.55805015831299    3.85643987256745   16.02275838239285
H        10.78309261607001    4.88659567288293   16.28943347563013
H        11.49326077824628    3.30501859974919   15.96149097229146
H         9.95587192866884    3.42454038089085   16.81892655870465
C         8.50661582846956    4.59464859581263   14.79346214845023
H         7.95234971213148    4.55337803717603   13.85819614509551
H         8.71816264115334    5.63715945474944   15.02285052813346
H         7.87835577141636    4.19097395266547   15.58500600435788
N         1.97558544650493   -0.34913669640412    8.00358800762205
N         8.72821743519236    2.12786346977806   13.19690930553897
N        10.08239157978212    4.55427010984001   12.33366895026421
N         6.79737808209767    8.99087391443370    5.32423328356602
N        11.42392780290901    1.83159484748847   11.71498141339345
N        12.22756618366692    1.14407523577365   11.21138579646454
N        13.05708757225474    0.48683878979526   10.81230195734660
N         8.86928226690199    2.52684885831161    9.93220808649074
N         8.31031314067104    3.00560175217531    9.02603128745436
N         7.73789948117782    3.43210644549296    8.14434686182537
Zn        9.79913928503747    2.68427609478883   11.53515559051552

