55
CSD_code = MAHZEC | q = 1 | S = 0 | Stoichiometry = C22H27N4OPd(1+) | MND = 5
Pd        3.35498584814768    4.98138232145337    4.39018556839568
O         1.77902073722188    2.44265728649437    1.41274528963452
N         1.21435488538028    7.00303409080053    4.11623256746667
N         0.53035318863316    5.44958731745127    5.43713544440613
N        -0.88664440187314    7.64858066879367    1.33843261806636
N         4.00353511449437    5.62897125424115    6.44894681658688
C         1.56828874216563    5.83211554080510    4.68825135267513
C        -0.48075350809747    6.37296048317186    5.34499607771817
H        -1.40761625885564    6.26652466439820    5.86922236154109
C        -0.05590500468404    7.34915421082967    4.50862410949594
H        -0.54257843869717    8.24538126920912    4.18507680902348
C         0.49873506579230    4.23006551770193    6.20041903238040
H         1.46300653075228    3.71938517679023    6.06449354184475
H        -0.30847828802830    3.58353495294725    5.85273787978096
H         0.34600552479767    4.44420208564025    7.25920376089369
C         2.05537097485124    7.66519073446561    3.19587680108466
C         3.41015545561335    7.81785785994394    3.48834304746988
H         3.79191890659487    7.53785258855684    4.47290396235977
C         4.25000784388790    8.41473387683535    2.55854698156924
H         5.29643510012060    8.54215606062018    2.78963674267330
C         3.75210243329428    8.86026463851924    1.34230278635677
H         4.41099846751777    9.32502811769877    0.62615025881104
C         2.41131893299436    8.71119466471075    1.04310065679800
H         2.01371333926176    9.04682951320424    0.09773429275313
C         1.55488885143127    8.10469432615144    1.96296188439955
C         0.20061013562550    7.87391189649701    1.61891500572794
C         4.48461954176642    5.81120030815346    7.47420073431643
C         5.07477165397530    6.04588795288615    8.74699644807313
H         5.27827570939176    7.11013527544847    8.86700091610028
H         6.00959820502847    5.49084140241525    8.82803991192450
H         4.39465762401401    5.71972998251702    9.53397421576285
C         5.31974476219000    4.51878163464043    3.52435663155179
H         5.97814282108151    5.30692069435011    3.90544185298549
C         4.96701065125625    3.53196586328707    4.39896044657874
H         5.38229829224523    3.59795146577642    5.41131175885742
C         4.33146070123658    2.18559813765438    4.15220783074066
H         3.63742697426421    1.99698567055896    4.98909829589017
H         5.12330594971357    1.43281631211206    4.23426587109722
C         3.58062140894004    1.94994994486696    2.84247079855352
H         3.20072984698578    0.92605801625729    2.85305609761220
H         4.23171080814446    2.02769872081748    1.97712683078946
C         2.37069404825537    2.86898018060622    2.63426703971231
H         1.64797862898632    2.69976389669628    3.46172402060916
C         2.69213671675059    4.36739091454199    2.56459011859950
H         1.75967398563342    4.87527946686505    2.27275203483817
C         3.76026680013405    4.73985255326798    1.53778023465906
H         3.66476676342423    5.80745625700925    1.31452475679462
H         3.55714450615709    4.19278347775966    0.61266336994628
C         5.19939371912690    4.46323096301142    2.01800170248697
H         5.54449863185085    3.48948013255873    1.67048005237444
H         5.86615321377918    5.20955346647758    1.58278212998587
C         0.39738001822302    2.66369441173834    1.29047824859949
H         0.10309054333211    2.20628351191379    0.34848952909649
H         0.14378922108380    3.72989255680816    1.26236129918863
H        -0.15437192531955    2.18928571107388    2.11122117238090

