50
CSD_code = MAHZOM | q = 0 | S = 0 | Stoichiometry = C20H24ClN3OPt | MND = 5
Pt        6.67459711639051    4.95588034569909    4.31928922252393
Cl        7.38449969791057    4.43798065774797    6.59530827720660
O         5.10789723721946    7.06137366207428    0.92169832115358
N         4.70228408746780    2.74079544115057    4.39839496327652
N         4.02318890448810    4.36085902069573    5.64194302288801
N         2.45283845662580    1.33737093612811    1.96786254443516
C         5.00084703893485    4.00079846120597    4.80132115926040
C         3.53207794003809    2.32529035912480    4.98706457770953
H         3.11202691394992    1.35556204568034    4.81988644027850
C         3.11410333339637    3.34340723912611    5.77293762210318
H         2.25495817432468    3.42050377957051    6.40668090217333
C         3.97072650519561    5.62520050596349    6.32190155574622
H         4.90358760620179    6.15633221082132    6.11099990699782
H         3.88870894034741    5.46974998632426    7.39773514689851
H         3.12070969569679    6.21508126053450    5.97435005125656
C         5.52089592357773    2.02549349827420    3.50877279104802
C         6.90104565233217    2.04275577396117    3.69304416464298
H         7.31842500121263    2.52111431855173    4.57402200266171
C         7.72434832280679    1.39123153728307    2.78874206999935
H         8.79279705341991    1.40490006433992    2.93834528178638
C         7.18490558092507    0.71802451528993    1.70199807772218
H         7.83185804001143    0.21633263070308    0.99895620975445
C         5.81672334572498    0.68304823693972    1.51782403091417
H         5.38357652665745    0.16209190891421    0.67718077509440
C         4.97292536392490    1.33873626029140    2.41693734544459
C         3.57947413842673    1.33674058990655    2.18101227286862
C         6.06431558908131    5.34209269211071    2.38423744633918
H         5.18071060952072    4.74654613122593    2.10591971325869
C         7.20008697434576    4.93133285706027    1.43921417923660
H         7.04541950729698    5.39992022589454    0.46299830762545
H         7.14609331817972    3.84938621603800    1.29311631578973
C         8.59905873205189    5.28339374593347    1.98716887589579
H         9.29968325551474    4.49403929289046    1.70725085159116
H         8.96957402605355    6.20727262669371    1.54012358216676
C         8.60648429224254    5.43134923117180    3.49412792966714
H         9.31084416731481    4.77882983932673    4.01584345076998
C         8.14068680343167    6.51740937655009    4.20337180921053
H         8.51247671393969    6.62433558528969    5.22561132866398
C         7.51241967098166    7.79734417737675    3.70897734607083
H         8.30264690086141    8.55712248135632    3.69516009328430
H         6.78794175200422    8.11858210472561    4.46816762269050
C         6.81910211434260    7.80486389651285    2.34845685002265
H         6.40457449522545    8.80321698825024    2.18626068376634
H         7.51970568184760    7.62440069035551    1.53835429173066
C         5.66206044597215    6.81081303122633    2.21890286193279
H         4.89301141962435    7.05659325666467    2.97499288626531
C         3.76805944904926    6.68960686673360    0.76259808665790
H         3.47655851864772    7.01544207112944   -0.23464499773319
H         3.12720508376928    7.18165436962391    1.50666751547759
H         3.62085388150791    5.60539699956627    0.83931423375384

