69
CSD_code = MAJBAC | q = 1 | S = 0 | Stoichiometry = C29H36ClN2Pt(1+) | MND = 6
Pt       20.27176473116388   -0.44322723783158    2.80057797936906
Cl       20.27940926741183   -1.99932520429248    1.13486280647764
N        17.29369526062078   -0.80589722084105    3.44641599265903
N        17.63977834533511   -0.16003346427613    1.42100614291919
C        18.25909644994989   -0.43560061626037    2.58308947916991
C        16.07436306810822   -0.75934737931761    2.82349236573519
H        15.16986943854259   -1.02786554297672    3.32777545602809
C        16.29369237065442   -0.35427243953866    1.55053937327796
H        15.61239888553988   -0.17997902652708    0.74442057875476
C        20.37233633455633    0.31424687428521    4.86385775445855
H        19.39964098674238    0.19095391898937    5.33557938277834
C        20.53421702489707    1.39934415208868    4.02038422418691
H        19.66326947775656    2.03375512926510    3.87701771359737
C        21.85743974645079    2.06461013617941    3.72030287744025
H        22.49919234896267    1.98739191568998    4.59779863495893
H        21.68302786295276    3.12775508264198    3.54755895563453
C        22.56263511889626    1.48604294522087    2.47765545884594
H        23.63330726052280    1.70629265926921    2.52635238994684
H        22.17881413477964    1.98385300815085    1.58349557043243
C        22.38368316786174    0.00379497053213    2.29026597073160
H        22.47465909944305   -0.32185397705954    1.25411830139845
C        22.41578080451365   -0.95070066801133    3.26910702834669
H        22.50192866059544   -1.99070136122903    2.95726006188267
C        22.73019521569904   -0.68524658057157    4.71977646635141
H        23.40657491185195    0.16569273065410    4.79554332331575
H        23.25588302351754   -1.54994883454397    5.12665473851377
C        21.46177508835389   -0.45412244142763    5.56206430784614
H        21.04638211277819   -1.42026295396428    5.86100258096448
H        21.72089706672430    0.07525796314762    6.48412375037910
C        18.28627445719395    0.23439672893656    0.21309869663480
C        18.89712770763735    1.48421900523713    0.12545526103245
C        19.57201337198477    1.80857331023132   -1.04590470157337
H        20.05058766293218    2.77447531547932   -1.11690680403498
C        19.62779995438641    0.93604663231987   -2.11975840625438
C        18.96068090332848   -0.27994439763981   -2.02057486081031
H        18.97645862724320   -0.95871368048759   -2.85997093404062
C        18.28293710169277   -0.65053539366316   -0.87239715206890
C        18.77465571111582    2.52889471563862    1.19670321895365
H        19.75640841981884    2.84426150656437    1.54275865830685
H        18.18636593260016    2.18502871982421    2.04376035104664
H        18.28203386068607    3.40644867793796    0.77868184295190
C        20.35674323633831    1.29253262285710   -3.37514107138661
H        19.64755449281176    1.43307760551261   -4.19023570518492
H        21.03382657212708    0.49048529277602   -3.66330449670900
H        20.92692940640339    2.20947922570306   -3.25304879692847
C        17.56843797106450   -1.96575258033211   -0.81542279976444
H        17.99094136629370   -2.65014508812236   -1.54558399676992
H        16.51257868363327   -1.83476943933719   -1.05291509172590
H        17.64629964587347   -2.42334908867199    0.16795710012694
C        17.44160081704887   -1.15195929941474    4.82135203284121
C        16.89026509635520   -0.30468118142840    5.78747766771186
C        17.01052711807528   -0.66204891490289    7.12190868998172
H        16.58758354416391   -0.01534574550904    7.87569861576378
C        17.65578226655354   -1.82921516784426    7.50959180590688
C        18.20135536225852   -2.64371070702794    6.52645856706830
H        18.70596941892012   -3.55385467577630    6.81409483102622
C        18.10521700003992   -2.32774352485765    5.17938036979009
C        16.20039120059756    0.97290907288501    5.41338853527401
H        16.25709034111614    1.68213040604482    6.23480155430531
H        15.14587572345271    0.79256526117722    5.20743132471645
H        16.64401053520265    1.42774651086349    4.52945688639160
C        17.74189513121340   -2.20398877376470    8.95325061000055
H        18.55448650356125   -2.90350575755285    9.12992827523250
H        16.81237248919856   -2.68142806715592    9.26338397803809
H        17.88549236466009   -1.32414366893988    9.57588167312385
C        18.71388992211845   -3.21766280153849    4.14290897883853
H        18.01226958227863   -3.42325202012995    3.33649748143119
H        19.02213301991543   -4.16138134297284    4.58281041793986
H        19.59933021290254   -2.74144583036228    3.70134772641865

