43
CSD_code = MAJFUB | q = 1 | S = 0 | Stoichiometry = C16H22AuN2O2(1+) | MND = 2
Au        5.21208067532649    5.98348118871927   11.26298015065236
N         0.68515564637842    6.20422139079819   14.11521797663759
N         9.92708217465112    7.60897300251837    9.30970352953171
O         9.47566548791161    5.82901659192318    8.02808312874320
C         3.55693665455457    5.68777303469744   12.20044237142450
C         2.50599391460032    5.50575354381916   12.79355789555918
C         1.30674340931480    5.25290672179942   13.45706040825316
C         1.16132680198247    7.57311032488735   14.20611212526952
H         1.50694318463198    7.92367074542636   13.23177100868266
H         2.00261274060882    7.62079362372283   14.90581978105566
C        -0.56516667660837    6.00555681212246   14.82637022153265
H        -0.50834233290398    5.11147759669234   15.45026184622550
H        -1.37497105736642    5.86631731306776   14.10275422326275
O         0.72640739373518    4.06092726746051   13.46845940276661
C         6.86594740952967    6.26934844852354   10.32021622058120
C         7.91578895994722    6.45500112334542    9.72623977403565
C         9.10441333059459    6.62751803639613    9.01921557433819
C        11.17862818828523    7.84295346551046    8.61141747441022
H        10.96656751231069    8.20374052483498    7.59966727830532
H        11.74632044766437    6.91400602294872    8.52967844357513
C        11.87116018282238    8.90954604271467    9.45500799869220
H        12.45278504909698    8.44346614427909   10.25052801583757
H        12.53342770305130    9.53436760504639    8.86190233276485
C        10.69798478896361    9.68960581943197   10.04771325646259
H        10.29373949696972   10.38241992178628    9.30947339576456
H        10.97297139507844   10.25041728174777   10.93676169623560
C         9.68330682134225    8.59101636111284   10.35126478046166
H         8.64612028386598    8.93017782043613   10.32213513268000
H         9.86843954924473    8.13738713467279   11.33081803274374
C         8.61654063906598    4.75001067521104    7.69008590764082
H         9.10372588187249    4.23177165003905    6.86766560291150
H         7.63699351008808    5.11690990618699    7.37636257679936
H         8.48867274733185    4.07419930854873    8.53839034804920
C        -0.73868468617372    7.29593297812621   15.62230753662216
H        -1.78468756359812    7.52770514786772   15.80368984550207
H        -0.22786500621403    7.21926544690040   16.58229380816876
C        -0.04832652423478    8.33527686308668   14.73955873459354
H         0.23918058262617    9.22793339772126   15.28823312040146
H        -0.70242799574771    8.62669724831357   13.91763587759135
C         1.37069528192615    3.00394602859207   12.77264335529167
H         1.46058592640715    3.23695859807481   11.70955570558400
H         0.73843649714039    2.13045043273844   12.91260684114155
H         2.36599157392677    2.81819140815545   13.18193726321548

