45
CSD_code = MAJFIO | q = 0 | S = 0 | Stoichiometry = C18H14Br2CdCl2N8 | MND = 4
Cd       -0.90123298490757    0.80857601226300    3.85703020198202
Br       -2.68624439691440    5.65331153229284    9.10985090773136
Cl       -0.18654648419940   -0.40849827406841    5.75732349079458
N         1.11863236004096    1.51923375016046    2.51388706975697
N         2.25324404304187    3.28082474754630    1.81084956016248
H         2.64514051766058    4.20886453513631    1.79148053284358
N         1.03824776526092    3.53761499049949    3.82819723283253
N         0.32167542366943    2.91752912141471    4.68482710745609
C         1.43723277817292    2.77965558586427    2.78184483284374
C         1.72871711170292    1.20629483149121    1.36227230662497
H         1.61677302412588    0.23304771948167    0.92613654767281
C         2.44664984143362    2.29210472218383    0.90503301027163
H         3.05670712259820    2.42012160399496    0.03439874770349
C        -0.21662748518399    3.61928559010120    5.72838259887498
C        -0.46105499611933    5.00070756550529    5.68563387330493
H        -0.11378964842074    5.56571820323753    4.83420010852470
C        -1.17818917574670    5.60460477052605    6.69449046703356
H        -1.40336061352566    6.65977493160468    6.65629753465073
C        -1.61889664253803    4.83714148406212    7.76517382419475
C        -1.33119696329469    3.48100970811017    7.85718503728828
H        -1.66403762420743    2.91220568069473    8.71164771112909
C        -0.63954787643637    2.86802065747495    6.83632162114787
H        -0.41596652350690    1.80882807663902    6.85964535650912
Br        0.88289916770786    5.65295377335955   -1.39668063651312
Cl       -1.61576923204193   -0.40918012552521    1.95714420606077
N        -2.92133210866141    1.51918282760580    5.19985292093005
N        -4.05687158249542    3.28050268911772    5.90209000162061
H        -4.44922044049317    4.20835967315625    5.92103465157853
N        -2.84162093854593    3.53716810379571    3.88489149316398
N        -2.12469687596164    2.91712030008354    3.02852417218853
C        -3.24045170972671    2.77936991929077    4.93141158693525
C        -3.53148908617883    1.20635939235989    6.35146009779216
H        -3.41918951646442    0.23331050695856    6.78794801173410
C        -4.25001578463162    2.29199637765772    6.80819208285023
H        -4.86030480064911    2.42002440877602    7.67866463342508
C        -1.58647903787917    3.61883741649687    1.98489981774029
C        -1.34226316696393    5.00030373441505    2.02754138947606
H        -1.68967832755299    5.56533416754991    2.87889813843644
C        -0.62524432750465    5.60423897015106    1.01862771358592
H        -0.40024801582846    6.65943601750780    1.05673034945593
C        -0.18451111537992    4.83677084770767   -0.05203994986894
C        -0.47189228073482    3.48055812893361   -0.14388429233295
H        -0.13896434167840    2.91174685836979   -0.99830795658523
C        -1.16338276356670    2.86752814085583    0.87705901876473
H        -1.38680228740896    1.80830032519064    0.85383286843827

