51
CSD_code = MAJFUA | q = 0 | S = 0 | Stoichiometry = C18H14CdI2N10O6 | MND = 6
Cd       -4.01184535169811   11.80845766710942   11.54889431666908
I        -6.28918056018454    6.32202638600900   16.74739409985549
C        -1.46600209958961   11.38114486501404    9.38103440221297
H        -1.66752445004343   12.33416043371879    8.93219565576269
C        -1.69001017454624    9.76636358533638   10.76838590488614
C        -0.52853203288064   10.42825532105779    9.04045814973379
H         0.21020602858941   10.41011507112771    8.26546294548172
N        -2.17008553869637   10.95758168273641   10.43992752738340
N        -0.68555004558974    9.40970934618926    9.92067701225804
H        -0.14314729544205    8.56196386094664    9.97342679111778
N        -2.62143598892686   13.28174370431553   12.98561926743968
O        -2.60845044850140   13.43106139787388   11.75898866230776
O        -1.98683461892472   13.99889420474679   13.71092850851242
O        -3.28992867872334   12.34113682823056   13.46053198417240
N        -2.96323059750498    9.48953191145274   12.54736246667066
N        -2.10683027276577    8.95562163259304   11.76977629460453
C        -3.54073682964752    8.72074624611236   13.51932727509680
C        -4.08105458082226    9.39656610726455   14.62327210399222
H        -3.89658041283031   10.45621671581049   14.71417766749331
C        -4.82199810009521    8.70741245597915   15.55724969231978
H        -5.23942088320052    9.22526089340488   16.40699211286476
C        -5.04258014243638    7.34698767890168   15.38654386043946
C        -3.72029868266831    7.33473979497916   13.39829229111498
H        -3.28295665775650    6.82431506060076   12.55367755143012
C        -4.48564404987920    6.65472179547315   14.32055091721453
H        -4.65281142247052    5.59363082501413   14.21320331126302
I        -1.73952578896800    6.32010180483001    6.34599092970697
C        -6.55777315362183   11.38094241585745   13.71588949351907
H        -6.35664057893066   12.33422436799695   14.16434397020434
C        -6.33312593125579    9.76579919250135   12.32904548986145
C        -7.49475189009794   10.42771815782273   14.05686137896348
H        -8.23335197936903   10.40939295897584   14.83198321500290
N        -5.85366819628507   10.95741305003603   12.65698642256063
N        -7.33733160650720    9.40895694351381   13.17694787189114
H        -7.87933112027958    8.56092623400933   13.12459285252936
N        -5.40216537351249   13.28195753229541   10.11214310618055
O        -5.41468390416203   13.43156218349598   11.33877242894859
O        -6.03680267844316   13.99912245303060    9.38693646570182
O        -4.73413603058084   12.34102039012432    9.63724072298206
N        -5.05968087930218    9.48908779350378   10.55023749928966
N        -5.91615612290529    8.95507266469914   11.32768946103244
C        -4.48281659619107    8.72050368706352    9.57771419419707
C        -3.94268759529210    9.39663575485527    8.47388618189537
H        -4.12641602541204   10.45647531600177    8.38381745687833
C        -3.20319208150482    8.70744536346787    7.53881885899044
H        -2.78560019239932    9.22555602113670    6.68934794686486
C        -2.98376436259066    7.34663769848189    7.70828915695822
C        -4.30431347948333    7.33427163069247    9.69770145252629
H        -4.74146255967644    6.82368712655957   10.54232603907000
C        -3.54040426302312    6.65416061694837    8.77431670230069
H        -3.37395372297490    5.59286317015254    8.88096992971115

