32
CSD_code = MAJJAK | q = -1 | S = 0 | Stoichiometry = C14H9N8Ru(1-) | MND = 6
Ru        2.01446206463677    2.73664925307354    8.87428193831837
N         1.05982794319084    3.81639275183861   10.28579031374704
N         0.88793263549615    4.32734287785385   12.43882309816367
H         1.06117902534511    4.33990671022143   13.42776701127165
N         2.95574496730121    2.15917303152946   10.41055348708588
N         3.30778872957039    1.44691107289028    8.01787003265894
N         4.97801567440831    0.01510442482193    8.31196836893831
H         5.68656763062519   -0.53698482457932    8.76067076755185
N        -0.10981842070189    0.43240417189753    9.17474023829230
N         0.44527467764794    3.70961188626420    6.30282838665671
N         4.03953444976251    5.10230992369618    8.41130597334205
C         0.05840275442138    4.72636443478726   10.44372604594832
H        -0.50242946112763    5.08024674661137    9.59910956677651
C        -0.05959793328876    5.05032648572505   11.76089266555863
H        -0.72446295318109    5.72118209670848   12.26653225748933
C         1.56323376121481    3.57710980088684   11.51401394188884
C         2.63325022511214    2.65368515485011   11.64610293681621
C         3.31623593081484    2.24468582218126   12.78944156943382
H         3.04699847922987    2.64699183091882   13.75626003716630
C         4.34447171548458    1.31610598439309   12.66789154592774
H         4.88429244204921    0.98872595020723   13.54500060966380
C         4.67746351367388    0.80973560582622   11.41609164942216
H         5.47484897680830    0.08771350746833   11.30681427545067
C         3.96931973968128    1.24529005413102   10.29814518758798
C         4.12016947817872    0.88170531632993    8.93427699508312
C         4.68589820339439    0.04690259408878    6.97265060559289
H         5.22381641493883   -0.55064431475712    6.26458945992546
C         3.66108715682963    0.92820947643380    6.80874521645117
H         3.15239862432417    1.22695408632799    5.91145540255420
C         0.61378374162198    1.30951852202373    8.97717884870805
C         1.01805749004842    3.35396388831146    7.24134601442622
C         3.24425232248840    4.26980567703912    8.49143555210287

