44
CSD_code = MAJMAO | q = 1 | S = 0 | Stoichiometry = C20H20ClN2Ru(1+) | MND = 9
Ru        1.29673370646698    2.17110780208691    8.69842756632130
Cl        3.13056292242292    3.54626868345639    9.09620491067853
N         2.69745060606177    0.90681849520587    8.06143271593958
N         1.73256490250747    1.20615723038829   10.34168351623199
C         3.21614925089626    0.90911518750287    6.83805610357129
H         2.78816465278931    1.60453995660359    6.12731955177170
C         4.26865883349094    0.08798640530440    6.47692257824433
H         4.65696482312780    0.12731780115555    5.47262892161552
C         4.81984266533969   -0.76853480760146    7.42628483756048
H         5.64366121038346   -1.41434263033410    7.16775977647606
C         4.30558236154634   -0.76025815322680    8.70673052717092
H         4.71452201351765   -1.38455422878296    9.48448836618846
C         3.24390621068398    0.09828434204134    9.00491260656575
C         2.64280668623162    0.28081571904500   10.29034403700943
H         2.95601838313806   -0.27536967081562   11.16575520921847
C         1.07871787780334    1.52019696265181   11.53125487469695
C         0.56513980621705    0.52941971948947   12.36951980185836
H         0.65506370518871   -0.50683547242051   12.07528157758717
C        -0.08671293494040    0.85905847681553   13.54601097227427
C        -0.21291143203904    2.20980102136810   13.90740788288428
C         0.31932157058495    3.18790475505383   13.07310239370458
H         0.24284740180232    4.22528859895543   13.36197877104547
C         0.95150374787850    2.86279022743658   11.89034850814271
H         1.40573972857374    3.62327301851305   11.26828535594527
C        -0.63927921450519   -0.21688099365812   14.42318405724401
H        -0.47834796887746   -1.19844757288173   13.98664647765955
H        -1.70749527822388   -0.07542038123311   14.57981618157867
H        -0.16025217370995   -0.19010414022091   15.40079794696451
C        -0.90291310201062    2.59377448973560   15.17280235553446
H        -0.90891448579406    3.67218067012784   15.30131855770432
H        -0.40418941227021    2.14419951509713   16.03031717324710
H        -1.93204899618500    2.23613709654352   15.17290579298525
C        -0.51202360473077    1.46319333141811    7.49112949163153
H        -0.74713513528860    0.48634487927235    7.08335153954164
C        -0.95913567154082    1.81675898750263    8.77913118690667
H        -1.53624365872943    1.10935807074875    9.36530038250225
C        -0.79530309351383    3.14439889689687    9.24762198702740
H        -1.23501722468353    3.43968381489400   10.19242585276842
C        -0.09785241583992    4.07084142079141    8.47251813898611
H         0.02307097478571    5.09194755782595    8.81713090618311
C         0.35362214465128    3.71903959076837    7.16890572339997
H         0.80748180529778    4.47593431136677    6.53921623267599
C         0.11100149337098    2.43857468630295    6.67298645889351
H         0.35207631812376    2.19633632880663    5.64425219386315

