47
CSD_code = MAJNIW | q = -1 | S = 0 | Stoichiometry = C24H12F4IrN4S2(1-) | MND = 6
Ir       10.34371490025424    2.15112089339124    3.52176116010889
S        10.47765623893524    5.95494831009313    0.72425700779939
S        14.36068272854547    0.20477743996568    2.03633301776821
N        10.71857992004170    3.75736480838487    4.66099153755690
N         9.94532971990066    0.53108931071800    2.40769755522242
N        10.30494547279442    3.48411987898944    1.94091309198455
N        12.33193216103764    1.71731689186858    3.13743829160151
F         6.97485217177057    5.39494822952041    5.97775521466643
F         4.91737721872713    1.85928625097686    3.71506904708810
F         9.83072736710821   -2.89760824565207    4.98672890842453
F        10.62885564165436    0.04778339223090    8.52825582160122
C        11.94287540776802    4.23439843483680    4.87344583153089
H        12.75851754935213    3.62988386443195    4.49990102657555
C        12.18174504055002    5.43120392943404    5.52050209845499
H        13.19357191196944    5.77632828065790    5.66194806897425
C        11.09678443244846    6.17287218076372    5.96404796710647
H        11.24018577080159    7.12061046160865    6.46162555646568
C         9.82277984407081    5.68211392161934    5.75313998096296
H         8.97030971786234    6.25000819599472    6.08283639474304
C         9.64658784486264    4.46312106558961    5.09867045399671
C         8.36603557651094    3.83664573107922    4.79327427440963
C         7.11235417119293    4.29042325377622    5.19751420012408
C         5.94496181357826    3.64380830778840    4.84851255275704
H         4.98697735094963    4.01468714280767    5.17352854809112
C         6.05636400059281    2.50713467209523    4.06747682835999
C         7.27471062462357    2.01409811555120    3.65219371662493
H         7.29072971629602    1.11827880597966    3.04941722051351
C         8.45740040913380    2.66127773501427    4.00367804465982
C         9.82677731857710    0.56477351262872    1.08245198265400
H         9.82120837399381    1.54822562172073    0.63178984211194
C         9.72656559312696   -0.57402582769736    0.30719368295204
H         9.63952567467577   -0.49198385065558   -0.76452864810406
C         9.75656119030887   -1.80926067265138    0.93728093949259
H         9.69709183382116   -2.72379830552641    0.36597088190634
C         9.87157022995595   -1.85321559106774    2.31320438919305
H         9.90601049337703   -2.80382653335008    2.81623766675984
C         9.96217500846847   -0.66730545047701    3.04160811048854
C        10.10862829288743   -0.56506484497853    4.48861900304408
C        10.06403595852128   -1.62228964741000    5.39484754551402
C        10.23462257298593   -1.43988606820397    6.75148533910032
H        10.19631812952254   -2.27400875924604    7.43243246156534
C        10.45694639783923   -0.14888823695897    7.19669313544588
C        10.49618833560661    0.93025815145135    6.33999596728115
H        10.66635313001630    1.91260519735762    6.75496623144532
C        10.32135215484510    0.75290809146970    4.96914260046371
C        10.39511424911479    4.54570103776152    1.44933715439300
C        13.17191033901587    1.06044091632218    2.64705829612166

