47
CSD_code = MAJWAV | q = 0 | S = 0 | Stoichiometry = C18H12NiS16 | MND = 4
Ni        6.27818183512159   -0.00000085851765   11.55788518888783
S         4.87193387890800   -1.56583366266777   11.02054550897314
S         2.06697122492590   -1.48688260321231    9.92327671274396
S        -0.82928555878858   -1.47879398376308    8.48191298621440
S        -3.22552983996926   -1.69994148570807    6.69705464241736
C         3.51397021091325   -0.68782116440374   10.49036931512281
C         1.22752651018400   -0.00000023519317    9.50740773434755
C         0.01899519157653   -0.00000009714624    8.90079415199774
C        -2.10018760365957   -0.67119012907724    7.56939089153836
C        -4.81640316345194   -1.27414048663886    7.49953458662728
C        -5.46199323657762    0.00000073245202    6.97734090058888
H        -5.44607562775653   -2.13376885649498    7.27310086189483
H        -4.64308689802992   -1.23113973097682    8.57440319386268
H        -6.51006950531814    0.00000257716170    7.28924837200077
H        -5.43526706166515   -0.00000114235540    5.88601731452923
S         2.06697425134992    1.48688220603625    9.92327029573911
C         3.51397186863384    0.68782037797194   10.49036614719439
S         4.87193644039338    1.56583247169380   11.02054033365533
S         7.68454131647163    1.56596104290475   12.09442182925720
C         9.04237147421812    0.68782478954436   12.62470217295439
S        10.48934435210315    1.48687426369787   13.19187295651921
C        11.32877973946837   -0.00000075703115   13.60777196351368
S        10.48934722136047   -1.48687560243466   13.19186639113187
C         9.04237282155011   -0.68782626840982   12.62469945532666
S         7.68454297680094   -1.56596260572751   12.09441813778341
C        12.53729316093814   -0.00000036462923   14.21442021849160
S        13.38556335764251    1.47879233881473   14.63333516781982
C        14.65646755287463    0.67118847337002   15.54585282417815
S        15.78181499852156    1.69993761607833   16.41819257141207
C        17.37269029661478    1.27414445069840   15.61571239519351
C        18.01828207549354    0.00000105653880   16.13789738774643
C        17.37269606330560   -1.27414365199726   15.61570897318638
S        15.78181959588030   -1.69994130499494   16.41818285832543
C        14.65647572274931   -0.67118974023993   15.54584195297937
S        13.38557208524237   -1.47879193039861   14.63332108919183
H        18.00236874918320   -2.13377425217438   15.84213767292251
H        17.19937903156054   -1.23114627329533   14.54084181438408
H        19.06635287924212    0.00000336176473   15.82598116175200
H        17.99156815491797   -0.00000034085054   17.22922028962086
H        18.00236150350913    2.13377645027844   15.84214020879873
H        17.19937063283052    1.23114807483612   14.54084553651430
C        -4.81639905075176    1.27414184592512    7.49953011062972
S        -3.22552595665226    1.69993772621917    6.69704585580792
C        -2.10018224236625    0.67118866714405    7.56938336032589
S        -0.82927978253876    1.47879426427353    8.48190274108085
H        -5.44607010436492    2.13377097051950    7.27309508410313
H        -4.64308154259173    1.23114377041643    8.57439868071063

