35
CSD_code = MAJXEB | q = 0 | S = 0 | Stoichiometry = C14H17ClN2Pd | MND = 4
Pd        1.48691150423782    0.83923369726544    8.76086811255316
Cl        3.63004128718322   -0.07329156056627    8.94533762392277
N         1.95823972450659    1.55277106583373    7.02344566287483
N         1.00750784285497    0.09855803783073   10.59844608953647
H         1.54850967431189   -0.74551130478068   10.80683228653630
H         1.31315578484553    0.82843268506461   11.25348248638729
C        -2.99506603100182    3.86028504816613    7.36465250785777
H        -2.35536996224269    4.73551945212942    7.26255422393194
H        -3.95869209636463    4.17496833254825    7.75785365092877
H        -3.14977839493458    3.44283934749840    6.36940330782154
C        -0.83915303168927   -0.09649097617631   12.22316636015238
H        -0.19913157619674   -0.77087642710485   12.79076372807423
H        -1.86699684323828   -0.41936463590639   12.35811292790440
H        -0.73858925279503    0.90974782636080   12.62664811666219
C        -0.44929731725489   -0.11614632798977   10.74468407964176
H        -0.67598649515218   -1.10789937361916   10.32531753809838
C        -1.14996815724237    0.93599556458748    9.90032391081976
C        -2.46731944735120    1.30855518889791   10.11261435206768
H        -3.04158879471533    0.86307832378281   10.91216436359123
C        -3.06534631681901    2.25531590282375    9.29832968176403
H        -4.09343328703889    2.53835603517561    9.47552687320067
C        -2.35699459831093    2.84088493622639    8.26127805511052
C        -1.03475030894689    2.45579963004597    8.05129391781406
H        -0.49206340192781    2.92049041258766    7.23394777737004
C        -0.40804355212012    1.50530666752873    8.84847796730494
C         1.53243945887873    0.98676988164735    5.89260787205392
H         0.71881480977078    0.27098352396751    5.98795218938580
C         2.08680164527969    1.28701088476453    4.66072393400976
H         1.71902584364540    0.80035913257174    3.77119410011422
C         3.11732417176027    2.21282911544808    4.59351783122359
H         3.57257271840568    2.46516873697447    3.64818410609899
C         3.55134498696432    2.80362895923272    5.77136700429881
H         4.35296447645918    3.52504607569072    5.76803113232425
C         2.94902136468599    2.44551010498268    6.96359523432358
H         3.27249357155259    2.87203603651505    7.91150099424093

