73
CSD_code = MAJYUS | q = -1 | S = 0 | Stoichiometry = C28H40CoS4(1-) | MND = 4
Co        7.05456540068257   14.63666698520297    8.08569270129668
S         6.36949578437014   16.05638542356272    9.53939233521218
S         7.33360834963217   13.23220442977400    9.67736647622673
S         5.80038653377376   14.24359696028953    6.39173905186468
S         8.66039782177705   15.03855539863686    6.72751571446176
C         6.43351498325270   15.34022016794771   11.13604415515697
C         6.07084162162405   15.97495972335366   12.33537046159787
C         6.20315556729226   15.24523443795388   13.50919963612340
H         5.93300044138644   15.71861364050010   14.43469265628578
C         6.66753604220647   13.93167927311212   13.55701327471754
C         7.00980016976467   13.32430170006700   12.36325045664922
H         7.37374218742909   12.30926051248615   12.31704844861493
C         6.89400588740837   14.02061834055270   11.17030545340865
C         6.81024562540768   13.15136641760445   14.85707091967207
C         8.27876733733092   12.74027119073218   15.03306180310746
H         8.61310446230349   12.12452543596555   14.20330613647468
H         8.40873236438520   12.17567949196246   15.95577753718725
H         8.91165890001926   13.62454289162091   15.07449224587553
C         6.39244995556620   13.95611417003579   16.09153551369312
H         6.51973130071703   13.34472381343372   16.98439849332082
H         5.34695390979800   14.24990568078615   16.03076071504691
H         7.00647275949057   14.84693338154685   16.20313907512973
C         5.92797507419587   11.89717952569874   14.78675373537235
H         4.88636013154628   12.18058516562867   14.64920636432796
H         6.01299563074952   11.31924407825063   15.70642856134096
H         6.21803893183210   11.26292142037893   13.95429557381999
C         5.54887405353390   17.40801575786415   12.36652934859524
C         6.61917178630647   18.35392045055204   11.80706605862101
H         6.26371286250645   19.38291525050905   11.83372672269286
H         6.85775951438762   18.09856638557831   10.78009622528806
H         7.52870092799103   18.28258579214090   12.40132837657245
C         5.20608727554838   17.89415462506678   13.78136701120164
H         4.83672862173394   18.91730261256427   13.72264772268637
H         6.08294586931497   17.89300225946917   14.42574949960716
H         4.42672783887591   17.28393540520576   14.23339938988638
C         4.26540273467420   17.50017002111915   11.53115883590180
H         3.87591103079168   18.51692756906563   11.54970007573057
H         3.50871961093109   16.82845024267688   11.93332172716011
H         4.45784263671732   17.22410816713797   10.49985072278008
C         6.72795589399990   14.42792330950708    4.91799368921432
C         6.24283556887546   14.23716929932053    3.61374901918428
C         7.13627124403431   14.42157320820580    2.56703565191358
H         6.78043103444042   14.27630560524689    1.56410844818325
C         8.47094272880410   14.78401813268721    2.74201201168321
C         8.92453229981802   14.97207455573674    4.03429895285737
H         9.94334489020300   15.25425145129527    4.25176128376425
C         8.06346341361018   14.79608395526020    5.10621570803525
C         9.43542687194190   14.97538845754562    1.57902741529731
C         9.97792905539943   16.41104272237678    1.60953011971051
H        10.50034378088226   16.61082485940626    2.54038348958971
H         9.15859445562677   17.12178833320494    1.52204518368408
H        10.67012069260382   16.57441606462806    0.78417404673778
C         8.78393536289650   14.74460659894472    0.21214511269030
H         8.40886294125817   13.72737063448737    0.12479327516401
H         9.52247360890241   14.90024856809978   -0.57371680287883
H         7.96491018656240   15.44119593097994    0.04755513397028
C        10.59619836846971   13.98177420128490    1.72630909702085
H        10.21834597638343   12.96137700346700    1.71211516564000
H        11.12208734417589   14.13385827529120    2.66428179315769
H        11.30662903484290   14.10125952656757    0.90895933693943
C         4.79502595735124   13.84312975267463    3.33856035711799
C         3.85875292203826   14.92528661598450    3.89168437057665
H         2.82049430511046   14.66080886289093    3.69681625048294
H         4.07108511722475   15.88165041459085    3.41648029548804
H         3.99047597528771   15.03614217380187    4.96275183623594
C         4.48442694864432   13.69448571716413    1.84290455807301
H         3.43702203794701   13.41878671943590    1.72607242747084
H         5.08780382946911   12.91182811949642    1.38739863616527
H         4.64456803875828   14.62889812696916    1.30877559786198
C         4.49917670021762   12.49150823258344    4.00111815328493
H         3.47120610081997   12.19164029299035    3.80293475135798
H         4.63919584202945   12.55196187430180    5.07514328741787
H         5.16830953373489   11.72797820825653    3.60768313449725

