140
CSD_code = MAKDAE | q = 0 | S = 0 | Stoichiometry = C42H91NbO3Si3 | MND = 4
Nb       23.91703759570526   25.84472960405226   27.04830565363134
Si       24.82710801505588   23.65320711625256   24.49873767973938
Si       20.42933296206265   26.58403231772188   26.64927711152137
Si       24.76829476812957   25.92459538558014   30.41040238700056
O        24.33498727860432   24.85442835802357   25.48077872297675
O        21.87218179700978   25.94068606090588   26.94500790864126
O        24.25560523668759   26.20382869199732   28.89542970046244
C        24.81522195295134   27.56614619135501   26.42992932884981
C        24.93097016825435   28.80877632525624   27.27962129570902
H        24.23689741719042   29.57924605827171   26.91751303572288
H        24.67493787495360   28.58328076403820   28.31835641458412
C        26.34958988101134   29.39641805310513   27.21527600976353
H        26.39926099279505   30.29953754243679   27.82786634521358
H        27.05720723977040   28.66968240296197   27.61951038121707
C        26.72740126257855   29.71526653038170   25.77471027798575
H        27.74637772110525   30.10637252053606   25.73181852158810
H        26.05670841562557   30.48190116679325   25.37995844026889
C        26.61352196483436   28.45315126404188   24.93015959515082
H        26.86998417699739   28.66861248995752   23.89044898855187
H        27.31303200996476   27.70332915897135   25.30764078858391
C        25.18631277089847   27.88823768812339   25.00371121085949
H        25.11782909013204   26.99297309972109   24.38146892750160
H        24.50202895879963   28.64334159798413   24.59552268672424
C        26.79516900335329   23.70994140111792   24.54242450621246
C        27.44052368214150   22.37270166702863   24.17156206852266
H        28.52677255974406   22.46610879320503   24.18611331982338
H        27.14294951558433   22.05838999134227   23.17560828348417
H        27.16635844994640   21.58871092928397   24.87108631108670
C        27.25639139839796   24.10606331182272   25.94826216497028
H        28.32285245553961   24.33393451167518   25.94590392722490
H        27.09185611923263   23.30199428575985   26.65694537408379
H        26.71415545539260   24.99685623547301   26.28523069772684
C        27.35936881689720   24.77235937315415   23.59424574760094
H        28.44079471674735   24.84173806846407   23.72034956813080
H        26.93202598715579   25.74635113903015   23.81239571997411
H        27.17018495516326   24.52415069940920   22.55490706223223
C        24.13658385636657   23.89113495339134   22.67909840843774
C        24.30511525319337   25.33412094915058   22.19339394061280
H        23.85989247309407   25.44338605077489   21.20400699401316
H        25.34771883081230   25.62109894185790   22.12072069246180
H        23.80112750144266   26.01821296611986   22.86841321666176
C        24.83234666716719   22.96146152276338   21.68193007843017
H        24.36634724638622   23.05817531156776   20.70111340908117
H        24.75684014288683   21.92283056211584   21.98930318997594
H        25.88369595175980   23.20850821045210   21.57311596649939
C        22.63665081389722   23.59055229119721   22.62072438288900
H        22.24032790259698   23.86080878390506   21.64147444655795
H        22.10591235046082   24.16770261125971   23.37076005029161
H        22.43598300303513   22.53446247037665   22.77398753054130
C        24.07582522545516   22.05601473055507   25.37126823200249
C        24.14538844930993   20.78039704120078   24.53104493538554
H        23.74639059281776   19.93816409990582   25.09748811607037
H        25.16987811899279   20.54671950858180   24.25524205241909
H        23.55985510060437   20.87320973599999   23.62116027907953
C        22.61255310826960   22.32666738094598   25.74182658626097
H        22.24866290386575   21.56200007550698   26.42984329948620
H        21.96868249737489   22.31542898253939   24.86965153472573
H        22.51575188265117   23.30122070487543   26.22823603371650
C        24.79853162689062   21.79346333862471   26.69422019596512
H        24.31682142891033   20.97533525746901   27.23230238792866
H        24.74994074882186   22.68577142261836   27.31802842374435
H        25.83877173798425   21.52026162953009   26.54468267503949
C        20.64860608429424   27.71947864150266   25.06329809704357
C        21.44823406082543   28.97338153931198   25.42644833488185
H        21.71310675213797   29.52407101406719   24.52201842035010
H        22.36216972242562   28.68028247821982   25.94122212631799
H        20.87610712983495   29.64452877002311   26.05959682373748
C        21.49539815858438   26.96814661892611   24.03215450705017
H        21.82105859634618   27.64763137177427   23.24291245698866
H        20.93378901563155   26.16802044273656   23.56333612646527
H        22.37818819742235   26.54521150491101   24.51957979259643
C        19.34017708820083   28.15560253927632   24.40341166118926
H        19.54799936364313   28.80930358267483   23.55536545070501
H        18.70884500731368   28.69764190220345   25.10148835809276
H        18.78161267603372   27.30052068219631   24.03315729267309
C        19.20224987656658   25.08259934589027   26.35443780303828
C        17.73421596689386   25.50476897368872   26.41243595977904
H        17.09180610389456   24.65177130505651   26.19006389083757
H        17.52263914871472   26.28502206079819   25.68699202998717
H        17.46405809066828   25.87487135349880   27.39658925708768
C        19.44035633215332   23.98163170367242   27.39322680238244
H        18.88022290755057   23.08459154126891   27.12573940915047
H        19.12235295297222   24.28817229068493   28.38324137242514
H        20.49503110797860   23.72278392480155   27.43569722643342
C        19.44725305186623   24.45025039132937   24.98306119187053
H        18.86292125982777   23.53462386646308   24.87957267565837
H        20.49656294234542   24.19840224962399   24.86701830306249
H        19.15255436857509   25.11985457643480   24.18047107829945
C        19.95177343564496   27.63365260797399   28.23448375688999
C        18.85373504800723   28.67005577110157   27.99258302483197
H        18.60935651935199   29.17911940953772   28.92580440255628
H        17.94889170441522   28.19918367909580   27.61808014896886
H        19.16665954989498   29.42382777345101   27.27670618756704
C        19.47727271157579   26.72139429462062   29.36838910154398
H        19.39111295661030   27.28743621531940   30.29761121527143
H        20.18250158955057   25.91135428599368   29.52586192165760
H        18.50096869284644   26.29676585072250   29.15423585996013
C        21.20907921257256   28.34748254548418   28.74138267400606
H        21.02575937960153   28.78104230348526   29.72516958862882
H        21.50915680538414   29.15001362181703   28.07645702353061
H        22.03815260925241   27.64026400259035   28.81594571538452
C        26.55940153104854   25.16031767075434   30.14332601215748
C        27.37962990493103   24.97113184650964   31.41950977286877
H        28.32942637901293   24.49003595646635   31.18370303103965
H        26.85327964918564   24.34636456996634   32.13547739238365
H        27.60029973782691   25.92235002283108   31.89413078837656
C        27.34922033608539   26.03961412238072   29.16651073525047
H        28.23545843125568   25.50953537674926   28.81585995687338
H        27.67797350051381   26.96114882545776   29.63265171709521
H        26.72751684727488   26.28823079972666   28.30014081869195
C        26.41615858946518   23.79905911725930   29.46414868852092
H        27.39426980951702   23.41110084554317   29.17639451560702
H        25.81278369965190   23.91778079983262   28.56202444969414
H        25.95131440142658   23.06645625192851   30.11721140760043
C        24.86601071752941   27.55926311210354   31.49200946529630
C        24.98184061713013   27.22587304522881   32.98172577032396
H        25.10999849041421   28.14312862738075   33.55688911411116
H        25.83518318978530   26.58382240354244   33.17761947664080
H        24.09065164181057   26.72836081935094   33.35029486259390
C        26.07894704836845   28.42149161143976   31.12633874692903
H        26.02437340347950   29.37276302178291   31.65696707196007
H        26.10401482404790   28.63100332300846   30.06167644259608
H        27.00810881323738   27.94101945496854   31.41629873285770
C        23.63438735164624   28.44453542226857   31.28861802661203
H        23.72470564712247   29.34932649786827   31.89091781350489
H        22.72111205766912   27.94023832782100   31.58093738488911
H        23.54707627230489   28.73787753422020   30.24655685924399
C        23.46148577097805   24.62322104028347   31.09863013411254
C        24.00210469837080   23.74651074209895   32.23024804431662
H        23.21468182422327   23.08994616851729   32.60206831172751
H        24.35245310937704   24.35483525505820   33.05938087984647
H        24.82462098096735   23.12050934596577   31.89637980264776
C        22.99167388786157   23.71767222597571   29.95179914132195
H        22.18080385197278   23.07199202324083   30.29314626682279
H        23.79229984214970   23.07826607952266   29.59005490588059
H        22.60906794941725   24.32220392563161   29.12282181758697
C        22.21036653184281   25.33566782815443   31.61996178945220
H        21.43264068252276   24.60639562087810   31.85233561560769
H        21.82383291461338   26.01833471219128   30.86966349667120
H        22.41566080511299   25.89316826529473   32.52870044978016

