92
CSD_code = MAKHAH | q = 0 | S = 0 | Stoichiometry = C50H31N8OPZn | MND = 5
Zn        0.08987393646962   10.18836748088387    1.58600718998703
N         1.84315992593645   10.85108765755546    0.94935946981344
C         2.06044426854458   11.50572946011841   -0.21589942500449
C         3.45913060214787   11.88783182253090   -0.30108732500533
C         4.20500928770781   12.53267472223672   -1.27319124499882
H         3.74535477693321   12.84730070613270   -2.19710812849939
C         5.54781038162077   12.74950124598580   -1.01667729956756
H         6.15890412890032   13.24864732687617   -1.75511285633129
C         6.13256941770341   12.33315030980458    0.17728980863409
H         7.18426127486840   12.52045267909648    0.34047328600771
C         5.39534171894168   11.67929924720211    1.14950663853080
H         5.84219334709045   11.34601769063051    2.07282847238685
C         4.05198220650530   11.45771010608670    0.89914063324437
C         2.99625173509564   10.81119990163878    1.65898880682216
N         3.18793412729328   10.29423618245735    2.85225142498517
N         0.99962114914424    9.35947415583778    3.12396599363903
C         2.26226437532514    9.64422158462101    3.52237572123066
C         2.49137051138528    9.07441067791181    4.84017707204558
C         3.58610924380570    9.06671443428895    5.68757802603841
H         4.50213895880887    9.56046895237905    5.40346036499508
C         3.45972086326712    8.40459094325199    6.89739783555916
H         4.29606738357785    8.37815404175027    7.58108474366865
C         2.27362105656768    7.76650746499395    7.25231807735982
H         2.21468120468567    7.25835302620202    8.20405840891962
C         1.17434124241547    7.77002026125074    6.40978756576355
H         0.25328736838877    7.27638231888224    6.67696851021289
C         1.29279647185775    8.43106202834277    5.19911172939422
C         0.37863908519617    8.63653484998013    4.08689969583537
N        -0.84370655385573    8.15416801641517    4.06469382881617
N        -1.49437390378055    9.06522150102530    1.94536316631290
C        -1.68693043884908    8.33945551227001    3.07319957809896
C        -3.02364073449215    7.76779867858225    3.05519821226512
C        -3.71319516710227    6.95264192262399    3.93661709980531
H        -3.25031280647064    6.62169044407440    4.85289704450339
C        -5.00341996574869    6.58205552257512    3.59632117876441
H        -5.56854333169759    5.94504349014444    4.26138629046504
C        -5.59082342164030    7.01296168614868    2.40910525107454
H        -6.59956020170478    6.70181253684267    2.17851205232096
C        -4.90741335080986    7.82849922125565    1.52273181787131
H        -5.35495260334589    8.16442903205103    0.60050365294530
C        -3.61663873882990    8.20257038768156    1.85582276689306
C        -2.61868259288260    9.02295800058697    1.18911839587524
N        -2.83815707005642    9.62632329187226    0.04183115718027
N        -0.66379680638947   10.60180232076632   -0.20129795040558
C        -1.94440433585423   10.36838438353769   -0.57535910378413
C        -2.22927066342948   11.09528484825749   -1.80068887796077
C        -3.36087384589093   11.20988863435228   -2.59040101273013
H        -4.25760351120178   10.66250836981622   -2.34562880365492
C        -3.29557953484455   12.04302661971234   -3.69352492630893
H        -4.16173234265249   12.15584251723684   -4.32973149074943
C        -2.13110638858748   12.74155552200695   -4.00459928985776
H        -2.12014862221710   13.38532764514680   -4.87239561604912
C        -0.99103218943215   12.61966712251943   -3.22929585997301
H        -0.08270789030585   13.14985420963331   -3.46977158767042
C        -1.04847860399558   11.78739989380004   -2.12436901775881
C        -0.07943932356732   11.42452795669623   -1.10480797855363
N         1.17509300837470   11.81817805279723   -1.13677235883097
O        -0.53390916154694   11.86825864506064    2.57121234774945
P        -0.49486797273713   13.32959508906488    2.30866189094733
C         1.18541696627642   13.91279005906631    1.92483095493727
C         2.08016454856459   13.80530497908715    2.98502492884382
H         1.73031915556685   13.40274946739739    3.92751121804419
C         3.39459819610797   14.19959952434568    2.82766745240267
H         4.08917452046044   14.10476852633017    3.64849975083799
C         3.81481781304150   14.71967150502398    1.61353071308042
H         4.83799547876668   15.04057537036651    1.48902317698146
C         2.93004457640932   14.80960955543228    0.55293731298242
H         3.26450773641720   15.19734421001046   -0.39728237215361
C         1.61644972175981   14.39358191483276    0.69791247705534
H         0.94411024716987   14.42393819624652   -0.14631695272460
C        -0.98749416946186   14.23602116789444    3.80154149920092
C        -1.46885383524485   13.51575052931441    4.88488762790565
H        -1.51235345022255   12.43777908318762    4.81749227832688
C        -1.87465113383648   14.18188152783910    6.02799718048499
H        -2.24680218889060   13.62428482893099    6.87466079036225
C        -1.80206633505653   15.56406084890011    6.08328161470592
H        -2.11923280073546   16.08493471144403    6.97455322597903
C        -1.32186711453274   16.28340878218071    4.99909509077376
H        -1.26580198747834   17.36087013365244    5.04808306822011
C        -0.91459843345041   15.62176917603281    3.85592654347209
H        -0.53433663669234   16.17140425460724    3.00636812741251
C        -1.68606433697403   13.81276782778568    1.02555359303276
C        -2.76952159554705   12.95778617596559    0.86278274722188
H        -2.83390527586087   12.06908246429007    1.47424927693847
C        -3.74554703197629   13.24091578345170   -0.07433519035302
H        -4.58037846132935   12.56875001469575   -0.19854606141918
C        -3.64114775769845   14.38148843729219   -0.85262157071658
H        -4.39054399947985   14.59618828645570   -1.59947494807498
C        -2.58183196212216   15.25487056151379   -0.66642245624634
H        -2.51282240545060   16.15437246816635   -1.26039268611344
C        -1.61110354575291   14.98345832858269    0.28109205539785
H        -0.80304548670162   15.68168894667928    0.44120447991805

