80
CSD_code = MAKJIR | q = 1 | S = 0 | Stoichiometry = C21H48BF4FeOP4(1+) | MND = 6
Fe       -2.57560536269722   12.05666187165566   36.09796289795649
P        -4.22133296143572   11.36355649156074   37.44292760562818
P        -4.17598615419008   12.46024182126489   34.57045672540696
P        -0.88064636089665   12.61020270859625   34.72583488526831
P        -1.00819189687322   11.70767843549608   37.67562335236398
F        -4.03828378521188    8.67412833824041   35.30548790250197
F        -2.41861055938235    8.71620351331402   33.71441532000266
F        -1.94374161227685    7.97930670734760   35.81483779793516
F        -2.35863095897006   10.21101761318723   35.45004521700125
O        -2.94929810212384   14.79792545260918   36.86313208145970
C        -2.78089809915735   13.69546646870325   36.59382363317964
C        -5.74521976872790   11.20825823477416   36.42215957942478
H        -5.67737128751276   10.26961721348333   35.86886614404420
H        -6.63120747833225   11.17239064242737   37.06047843357605
C        -5.78751171457996   12.39026197764167   35.46499777203467
H        -5.90860124932403   13.32755081075556   36.01692407924403
H        -6.61116307873179   12.30033645277319   34.75295382430608
C         0.49736408895337   12.58080284890811   37.07305641705090
H         0.32062557298694   13.65718748509180   37.15354970727605
H         1.36413492196172   12.32555219728985   37.68718650864101
C         0.67674589424595   12.18307731913720   35.61594564165494
H         0.81312051544925   11.10072485525362   35.53511541109896
H         1.53319941205022   12.67946631118241   35.15422777350962
C        -4.73786813291640   12.56892101113113   38.74343232681968
H        -3.83760003808250   12.86931767951128   39.28174460333086
H        -5.10248509640388   13.45491537105915   38.21544811202131
C        -5.78772286504981   12.08611902922186   39.73697245263994
H        -6.01659711306139   12.88909535005870   40.43462375339434
H        -5.42736936663400   11.23776390757404   40.31264198888502
H        -6.71393578817330   11.80623438172479   39.24154061681563
C        -4.03139207092221    9.73977166650284   38.29158511742249
H        -3.29641185113145    9.17413072607468   37.71503991307532
H        -3.60064045947722    9.94765651448253   39.27716291452379
C        -5.29530475877969    8.89314933029218   38.41777354861383
H        -5.07153581201135    8.02080187199357   39.02769336931890
H        -5.61104437156086    8.53802396989373   37.44173864255173
H        -6.11412360292634    9.43184249617311   38.88520130164864
C        -4.37176522369037   11.19512670573379   33.24999343557345
H        -3.39453142251682   11.07130725539262   32.77916884071067
H        -4.59453546129596   10.25472487740004   33.75766855120763
C        -5.42110229953066   11.46337582646787   32.17750613005588
H        -5.44969370304742   10.61005817613136   31.50361795175935
H        -5.17702268785863   12.34343567128958   31.58786924206652
H        -6.41614423312915   11.58068746526616   32.59971574010120
C        -4.23353766628726   14.09442410337501   33.70521990373566
H        -3.70118138889696   14.80943398409839   34.33675341030442
H        -3.65998194201034   13.97228250056855   32.78037087957351
C        -5.61614174493485   14.66524752489589   33.39726575851371
H        -5.49825740742689   15.57298636982890   32.80894630487553
H        -6.14283697744512   14.93062667679625   34.30951962935622
H        -6.23073027466879   13.97599034417631   32.82827745056480
C        -0.44675839645939    9.96222581553342   37.88641859093597
H        -1.13977819852676    9.51516805363431   38.60511473500599
H        -0.58935703582277    9.43829845747757   36.94068378754534
C         0.98733044461343    9.75710797247291   38.36665891638205
H         1.13179724514313    8.69973877316106   38.57545373510778
H         1.20066571972836   10.30676228417989   39.28084049989316
H         1.71273581774282   10.04185929651045   37.60914454978341
C        -1.10120118397956   12.25362153345559   39.43438152322012
H        -1.97765290286655   11.76897274013512   39.87559612590525
H        -0.21761916713116   11.84280978395286   39.93270191565488
C        -1.15453710357390   13.75981152935365   39.65618023417694
H        -1.30953263831226   13.96917220286565   40.71248552810732
H        -1.96383184662234   14.22193982353997   39.09827316171475
H        -0.22133131276988   14.23108263613835   39.35996945055392
C        -0.72890063167939   11.72239848680685   33.11774418540899
H        -1.25545327299541   10.77233131059547   33.23901322721701
H        -1.27630329426633   12.32123293114650   32.38153440433253
C         0.68401182566602   11.42233468324240   32.62070705737025
H         0.61431239556053   10.98170197002102   31.62866400798597
H         1.17913597624679   10.70004407506931   33.26303995994116
H         1.30251334629049   12.31160514928713   32.55163757663098
C        -0.65474028557152   14.40521684405319   34.35416743053974
H        -1.59192147227594   14.75603901658863   33.91794023623152
H        -0.54306361516614   14.90655056562740   35.32053692816069
C         0.49642844333934   14.78759488137972   33.43110415261820
H         0.53573516234171   15.87145577791973   33.34385692582570
H         0.35251528114009   14.37998766541505   32.43425819428934
H         1.45670561104312   14.45416641618716   33.81604793546981
B        -2.71010112617133    8.75630276645934   35.02814442398183

