53
CSD_code = MAKJEQ | q = 0 | S = 0 | Stoichiometry = C16H28N2O4PdS2 | MND = 4
Pd        3.73475991432802    6.40150612503861    3.80711978289091
S         8.28650306791233    4.66030553519480    2.19820665990685
N         5.29063714614010    5.28072167465699    3.05376047835640
O         2.47793932707197    4.79915823165460    3.39371652424902
O         3.43301175161159    4.24492869428924    5.30624932590084
C         2.61706612371906    4.02333220469194    4.39685003498378
C         1.75516595894360    2.81432873603249    4.45592731657909
C         0.81890750258429    2.55348424062615    3.55169636465445
C        -0.08617939044422    1.37316244347849    3.57444117401161
C         5.82114292957663    5.82734734449892    1.80338518958412
C         6.81703727675332    4.88263125253672    1.14101052789183
C         6.31556146493882    5.10196099711563    4.08707696781755
C         7.37770105391520    4.09105195864799    3.67463906139478
H         4.86359974995192    4.36805379388607    2.85840236814994
H         1.93333429458113    2.16960719933721    5.30492410600829
H         0.68842791782946    3.24319544392856    2.72690229950987
H        -1.12452806949180    1.70129520866573    3.61955445526470
H         0.03263228696483    0.79255525742041    2.65983643551202
H         0.12150257134951    0.73548620088149    4.43003932538883
H         4.97814563467927    6.02356685206260    1.12633979093085
H         6.31491744318120    6.77949598914730    2.02529947825355
H         7.17895921463122    5.29316694841789    0.20077013504943
H         6.37502011574036    3.90044831242899    0.95928848779849
H         6.77561905178125    6.07721947288638    4.28148011675042
H         5.80944112931239    4.75683218624545    4.99988994809378
H         6.93311781668498    3.12022085456311    3.44534422091659
H         8.12237803928635    3.96699282469172    4.45789529276310
S        -0.81694371178868    8.14255731548094    5.41641209655889
N         2.17887830982994    7.52220289844519    4.56060904218630
O         4.99157268739512    8.00380043354649    4.22058779608888
O         4.03644389540400    8.55806186231438    2.30809357937119
C         4.85254208026929    8.77954822847760    3.21737702609434
C         5.71473438790869    9.98833455150669    3.15813119630069
C         6.65135061092686   10.24879800357153    4.06209952934447
C         7.55683343313572   11.42881035265825    4.03919691039024
C         1.64845323794766    6.97551838693703    5.81099604909476
C         0.65259901090949    7.92019374651904    6.47349230309032
C         1.15388368739774    7.70103105118618    3.52737723157795
C         0.09176690049458    8.71190805247807    3.93995969607772
H         2.60593042120605    8.43485926375321    4.75598696114489
H         5.53652356925433   10.63316906569958    2.30922952967307
H         6.78186733616424    9.55895070122073    4.88677440224120
H         8.59505731584847   11.10032326251260    3.99378357496809
H         7.43846025301683   12.00937818486893    4.95388248467080
H         7.34914153892665   12.06662888963490    3.18370719301250
H         2.49149702377828    6.77926824523618    6.48797586663175
H         1.15467111307866    6.02337705608244    5.58906593118000
H         0.29073941631013    7.50960428644973    7.41373349550963
H         1.09461669944153    8.90237247366321    6.65524074963603
H         0.69382061094759    6.72578181126200    3.33293849887731
H         1.65994596516840    8.04622471097605    2.61455715840024
H         0.53635721013202    9.68273002303272    4.16928317714984
H        -0.65296432663598    8.83601115946196    3.15676265211997

