84
CSD_code = MAKMUG | q = 0 | S = 0 | Stoichiometry = C34H39I2O5P3W | MND = 7
W        13.85374244312916    0.60969516530236   -1.69499529856195
C        15.48168561653397   -0.39840480581566   -1.22537328992404
O        16.58158227420101   -0.81475738775921   -1.03504522996840
C        14.12311824483753   -1.00272723596132   -0.58652636657478
O        14.10478567019939   -1.98437605654351    0.08935134850764
I        12.29008048580439    1.51342274827213    0.49410688020417
I        13.02290765231997    2.82342138922332   -3.18519676534473
P        14.79103250315285   -0.02006603110816   -3.85682259262852
P        12.04509381884721   -0.71300255598133   -2.77898078195339
C        12.40982084006324   -1.12124326622775   -4.56973784991687
H        12.80165450918262   -2.14195063497303   -4.61313226404310
H        11.48316207273731   -1.07731552906673   -5.14855257378339
C        13.45458579858235   -0.16600927715142   -5.13788176256573
H        13.00940111091654    0.81237876911725   -5.33555489212899
H        13.87951213905799   -0.55193764804425   -6.07102525891137
C        15.50028304025411   -1.68876029536625   -4.09633240802851
C        15.21434444191345   -2.72475568265952   -3.21662009230954
H        14.60481788187976   -2.54832623075409   -2.34065297942408
C        15.70300530388758   -3.99878459952188   -3.45039530418803
H        15.47702378846017   -4.79057883919707   -2.75181274203834
C        16.47673208026882   -4.24952278295215   -4.56978510144921
H        16.86461018779139   -5.24107888332303   -4.74897755319518
C        16.75096585480949   -3.22520731890004   -5.46290093332721
H        17.34812879606985   -3.41818882747711   -6.34200415825074
C        16.26265946160863   -1.95345438035731   -5.23300284265887
H        16.48004286257335   -1.15696711095870   -5.93256892221727
C        16.07238217840638    1.01447945344074   -4.61605584722561
C        17.38215585393639    0.80718976973734   -4.18300374231574
H        17.58546061779322    0.02784971316249   -3.45970762007371
C        18.40570776387555    1.59021304712153   -4.67809860976826
H        19.42084005306373    1.42182002376005   -4.34858679069974
C        18.12897804395354    2.59461714093611   -5.59434953812218
H        18.92985873021926    3.21014515565772   -5.97688785392491
C        16.82780241867267    2.81331655528757   -6.01243158321686
H        16.60915070260469    3.60108803694046   -6.71759822315401
C        15.79632578947731    2.02765713398834   -5.52723152640900
H        14.78494327902500    2.21427055814293   -5.85699104930619
P        15.34648522631334    2.24544733652654   -0.72185944400375
O        16.60707206555886    2.14776799226485   -1.71037824301013
C        17.79929794399385    2.92051146105074   -1.54068289846356
H        18.11122122357222    3.20536250807918   -2.54994379384709
H        17.57321910257617    3.82344029564226   -0.96902229793990
C        18.87569644343116    2.09932152189739   -0.85211173711720
H        18.60127341233625    1.90807511922668    0.18213728007849
H        19.81982671191695    2.63771456060034   -0.87341683887058
H        18.99524617779434    1.14497026712578   -1.35944819796484
O        15.92992431154068    2.06178720067444    0.76812088547031
C        15.94680071391702    0.89577077436552    1.57843661236376
H        16.90473764600763    0.38253432179100    1.43752851294252
H        15.14504367301574    0.20801419170470    1.28489207426066
C        15.75759646261511    1.30631092381109    3.02876032564492
H        16.50747708022250    2.04096998002472    3.31073475964640
H        15.85344636811569    0.43243495196995    3.66667113477066
H        14.76968058746851    1.73780069252294    3.17009945131207
O        15.21082797035580    3.82974536246592   -0.71232646308575
C        14.25121393462475    4.68141920087376   -0.08846009786739
H        14.43258082578684    5.65858461002299   -0.54612494955251
H        13.23649144257608    4.36717500364370   -0.34632176105108
C        14.41699567240700    4.75258540078389    1.41735574780357
H        14.13779583815301    3.80916909297787    1.87704105132983
H        13.76980795543309    5.53206615014598    1.80915981777542
H        15.44912975173172    4.97941051256380    1.67299960159200
C        10.29236420857288   -0.19154399731865   -2.91123365415809
C         9.40171516856155   -1.10128963759784   -3.48343982638508
H         9.76044880983104   -2.06437227842658   -3.82435356040580
C         8.06419808872828   -0.78402429994344   -3.59914096421365
H         7.38152754709329   -1.49360727878923   -4.04352132356209
C         7.59800169031017    0.43896155427427   -3.13924357745670
H         6.55054856303374    0.68412009143016   -3.23064298677734
C         8.47406644409095    1.33622481048292   -2.55757778157990
H         8.11922270486919    2.28574773485067   -2.18854575820463
C         9.81851191297813    1.02390727848730   -2.43954306202908
H        10.47745278512196    1.74100227398824   -1.97718438740325
C        11.73586040091211   -2.31603430294857   -1.96451406662553
C        12.06728492730201   -3.57559019611908   -2.44566738783302
H        12.51817425778777   -3.70655183813368   -3.41969373961091
C        11.82736013013758   -4.69678288996228   -1.66874817083386
H        12.09220293478794   -5.67231111180335   -2.05074133193945
C        11.26220818030280   -4.57271018851279   -0.41240348815359
H        11.08937023581433   -5.45135243829157    0.19074695458048
C        10.92411457150738   -3.31869200945463    0.07157744139467
H        10.48664184862520   -3.21155896567103    1.05232381449123
C        11.15932877228392   -2.19870878381237   -0.69868391543779
H        10.89802296586838   -1.21807223956568   -0.31914764114012

