148
CSD_code = MAKMOB | q = 0 | S = 0 | Stoichiometry = C73H66MoO2P6 | MND = 6
Mo        6.16562162130107    5.07083900468492    4.99848047121537
P         8.08672103937698    4.50515716180561    3.63924241142301
P         7.02401220614533    7.11120235352479    4.30070880904941
P         4.89325386131817    5.37190634874460    3.05239119299958
P         3.94631579984661    1.44677664810641    1.33688973350271
P         5.23601999670364    3.06680974464165    5.87902972644633
P         7.34482416418810    4.97340921977203    7.05852045698820
O         3.78404460524221    6.34348462779266    6.45779816242119
O         5.33378402281171    1.05504465205150    1.06432975597927
C         9.40470432466616    5.76347793690742    3.96442060578943
C         8.85921773484099    7.17211577688304    4.16470645112040
C         6.51522711199634    7.50916284478147    2.59721194666409
C         6.99073897372663    8.63149133364193    1.92697985883696
C         6.64193493127745    8.84616279597558    0.60731406504291
C         5.81512030412449    7.94230986269657   -0.04309384803355
C         5.29490800693796    6.85438890074819    0.63454282305641
C         5.63343103874914    6.63314140812833    1.96684507788396
C         4.40126705535038    4.09507899355071    1.80792688548442
C         3.78915236864258    2.87969643366229    2.47783891875689
C         8.02297028717687    4.54332585491033    1.81166244122464
C         7.59375911154161    3.39827842201584    1.14227737685327
C         7.52056989560956    3.36827471543405   -0.23826626709652
C         7.87972687496044    4.48217601678484   -0.97794057483206
C         8.33084034235415    5.61645864524639   -0.32573338318993
C         8.40756119142111    5.64618489100445    1.05535998931725
C         9.21388372446110    3.07552331109382    3.80770519039783
C        10.19496721219285    2.76257499662337    2.87250762037236
C        11.04849745401218    1.69928686687082    3.10153188406327
C        10.93739820343880    0.94408083864989    4.25858447910948
C         9.97005293916665    1.25828356552997    5.19691704237651
C         9.11765416508756    2.32061858018446    4.96435080226337
C         6.59252795757568    8.71862114548393    5.02855777800473
C         5.22520262008354    8.99390649237783    4.98685041884902
C         4.72129884133633   10.15496791934215    5.53496582782809
C         5.58234271068557   11.06056083007692    6.13673555561822
C         6.93979825490559   10.79548793866434    6.18341962029311
C         7.44863685346868    9.63048214922496    5.63343001555951
C         3.25237650332484    6.12705692394851    3.29499535205758
C         2.35581488490972    5.39742604334868    4.06993650748602
C         1.08751510448907    5.87809645760851    4.32893048594442
C         0.70146616580061    7.11046856564997    3.82746150521820
C         1.59088287862048    7.85119570158795    3.06825104131035
C         2.85835298804559    7.36492130729455    2.79634997958189
C         3.04309422649445    1.92671148840294   -0.17073674130559
C         1.90995082719237    2.73045142629507   -0.18031920721660
C         1.28401291494176    3.01961181659247   -1.37958192879398
C         1.78111670677933    2.50828370450081   -2.56806888055276
C         2.91289553042017    1.70954043384685   -2.56112114081566
C         3.54162635740730    1.42106756599468   -1.36353816699173
C         2.96471054111499    0.10243598892126    2.07679999098155
C         3.67250941080424   -0.91457260484137    2.70297841373264
C         2.99698429214798   -1.96365816822398    3.29948289309511
C         1.61284244981583   -2.00580700824163    3.25496057414120
C         0.90603261384266   -0.99730567776262    2.61792911584577
C         1.57818344601130    0.06106462462000    2.03333247875596
C         5.55484460906410    3.08865823855093    7.70063066594574
C         7.02334184030356    3.37483554754758    7.92591382927323
C         3.45442078083243    2.63664285537678    6.01830264914109
C         2.91130079943339    1.53873528689202    5.35533983537071
C         1.56892201189298    1.22821487935694    5.48066858912845
C         0.74181907500435    2.00957691136906    6.26802998000566
C         1.26896357909300    3.10446286945264    6.93245940784952
C         2.61060600540459    3.41521160151382    6.81072333684904
C         5.87540523904053    1.42204545358733    5.41237597823633
C         5.73823012077409    0.27043051444019    6.18364882527321
C         6.26232207793703   -0.92654731693281    5.73274570812333
C         6.91426434985023   -0.99337620495923    4.51047704316642
C         7.03863445120402    0.14318042818471    3.73004956686749
C         6.51967123219135    1.34001012414617    4.18618247568053
C         6.85402730227694    6.14336786506217    8.37922653965396
C         6.18553397854103    7.30820891838109    8.03333771735690
C         5.84823929228546    8.24873585926191    8.99051981358564
C         6.18792078511464    8.03631943905560   10.31443040482924
C         6.89266622634723    6.89568074733261   10.66692382607499
C         7.23598927919674    5.96218460956978    9.70802873215873
C         9.13884297060858    5.20525695313696    7.32498734785534
C         9.58494649259919    6.52616390518061    7.38530455537958
C        10.92799271801072    6.81438780907525    7.52784159216617
C        11.85103062496980    5.78415546062894    7.61816872360003
C        11.41682832273340    4.47084130258456    7.58035761611970
C        10.07073734109060    4.17965266535741    7.43751276698409
C         4.68391573337427    5.82908531772233    5.95627475034906
H         9.88294827056511    5.41230860438880    4.88734196161557
H        10.15635837464352    5.71118923024590    3.16876056641510
H         9.15704471077013    7.85393409874284    3.36028958945997
H         9.23722117624971    7.57565699018009    5.10839615570253
H         7.63047349661625    9.33648595131397    2.44452442144541
H         7.01445184475116    9.71442731568960    0.08250978075301
H         5.55711441584286    8.09908776333495   -1.08072708120926
H         4.62675314131657    6.18205524183398    0.11674828140925
H         3.70007803823652    4.53520410281776    1.09055192984953
H         5.31396615078775    3.79708509093074    1.27749552708056
H         2.74771695907106    3.03691221671984    2.75984012392734
H         4.36283905366120    2.63776811724123    3.38263527630848
H         7.32375026410964    2.51247504690677    1.69853465566762
H         7.17545622645718    2.47017611108936   -0.72881905109244
H         7.81962985490989    4.46344786937012   -2.05671551820625
H         8.62953434208524    6.48696937850711   -0.89343277583863
H         8.76823076332178    6.54358415791983    1.53456761003760
H        10.28668682764417    3.33989970054327    1.96264320481209
H        11.80642304150872    1.45480909844515    2.37065053005521
H        11.60483449740290    0.11092972560274    4.42539390520903
H         9.87612231691524    0.66939300113465    6.09919010417906
H         8.33850000348703    2.58919495501792    5.66376220524181
H         4.56299771132887    8.26768736632800    4.52788643619280
H         3.65968571301728   10.35262167932162    5.49836142621987
H         5.19471649675414   11.97094003104117    6.57083163199777
H         7.61098709904069   11.50046904749126    6.65366440257698
H         8.51250225159047    9.44634321941096    5.68298826314794
H         2.67710010841071    4.45621107060890    4.49377558915573
H         0.40681027827643    5.29472718891271    4.93281158088570
H        -0.28565832030650    7.49717136052326    4.03583242562354
H         1.29936619950038    8.81894672581916    2.68447937970336
H         3.53753343261612    7.95947579590090    2.20051961527733
H         1.51977836012966    3.13867326093139    0.74165990209023
H         0.40425222943676    3.64708899567652   -1.38788774288221
H         1.28502155921653    2.73537281444391   -3.50032935713118
H         3.30141145004156    1.31247274327558   -3.48757280349591
H         4.42990616118878    0.80637972841704   -1.33059864637345
H         4.75220281645929   -0.86666181629216    2.71263267116967
H         3.54853259449144   -2.74878328424030    3.79581263108908
H         1.08160660226099   -2.82644640025734    3.71517001245209
H        -0.17349324128922   -1.03539001282735    2.57955041409169
H         1.02842485545104    0.84739173255005    1.53687209880399
H         4.96311320220683    3.91610646073818    8.11236532348913
H         5.23196120541237    2.15600671717702    8.17549192597248
H         7.62306617977660    2.57388048708007    7.48396108661064
H         7.26350565307898    3.43881004114905    8.99099380726738
H         3.53762813929250    0.90912591804593    4.73859022303369
H         1.17372994676208    0.36794809466003    4.96017997694274
H        -0.30616023381694    1.76518034987559    6.36533933496158
H         0.63328809769744    3.72060912235043    7.55243982962648
H         2.99293127560134    4.28227117456093    7.32728735074798
H         5.21036264236059    0.29940208226796    7.12715652574942
H         6.15829045218567   -1.81687999088159    6.33745558165591
H         7.31910919132932   -1.93463413926475    4.16689607148241
H         7.53352046154447    0.09744971793379    2.77138622945077
H         6.61615830904141    2.25136298249189    3.60526588727269
H         5.94467780191418    7.47948229921379    6.99623200979688
H         5.32460586430526    9.14656842430755    8.69502706933911
H         5.92157756157120    8.76185855950990   11.06950058980722
H         7.18569756340104    6.73850696273238   11.69565679478334
H         7.82459118331963    5.10301766580449   10.00040978802156
H         8.85508803144860    7.32567105814689    7.33490136123137
H        11.25900176821155    7.84273031268050    7.57517373667299
H        12.90262590692406    6.00589188084405    7.72730310686029
H        12.13008656393048    3.66309161913542    7.66357713792816
H         9.75955221652757    3.14719732739931    7.42070404613997

