93
CSD_code = MAKMEQ | q = 0 | S = 0 | Stoichiometry = C45H37I2O5P3W | MND = 7
W         3.67374610720084   13.00853083627767    0.36367311013894
I         0.95333017165893   13.28898316146750    0.93726775338299
I         2.94888639679326   11.17373128765091   -1.64515669088015
P         3.53937916300210   11.42473869772526    2.28793904197797
C         5.09280522699988   10.60380191581412    2.75169394477482
C         5.80665983944935   10.77989929844702    3.92945908853417
H         5.45311623194202   11.44470185693886    4.70528653250157
C         7.00251545912036   10.10698851212708    4.11154895882610
H         7.56055113004838   10.25447437071489    5.02484181263926
C         7.48505668327086    9.25820579749380    3.13026717571101
H         8.42382462346751    8.74543846415896    3.27726619164283
C         6.76750250629625    9.06829335854292    1.95916424826327
H         7.14175922709649    8.40811525985834    1.19197376613511
C         5.57681295355924    9.73969904870165    1.76912134372435
H         5.01135422633523    9.60712631709984    0.85260468655275
C         2.35275761459894   10.09462007145115    2.67646615331127
C         2.34153068209143    9.58622302949323    3.97371116871983
H         3.02817020618031    9.97994628620318    4.71198932531124
C         1.45947270905723    8.57840819664126    4.30719865783574
H         1.44852152511082    8.18477214915039    5.31307867358457
C         0.59159389833145    8.07153463948391    3.35083400729918
H        -0.09653737966277    7.28298149613804    3.61622496953660
C         0.60801751834030    8.57167977192894    2.06091604838910
H        -0.06467852593125    8.17870588569212    1.31459587855579
C         1.48861825191849    9.58341339942931    1.71755920573094
H         1.49196866479735    9.96587690977178    0.70752128198577
C         3.18608647400777   12.71239445906697    3.58951701792942
H         2.10301059651005   12.77896335303336    3.73394972209455
H         3.67333584514374   12.58288497394899    4.55832510652397
P         3.85845801267025   14.12649053129434    2.57479387198681
C         5.44475528892694   14.31401182120702    3.46663188549578
C         5.47007008611365   15.04962440757416    4.65059529151601
H         4.58023615774382   15.56845074987971    4.98176474486229
C         6.62863098595793   15.12147908864025    5.40005854403592
H         6.63917295781290   15.69823062154237    6.31328435564369
C         7.77029258846522   14.45491893661034    4.98343379563554
H         8.67509283718619   14.51508529949600    5.56956057559475
C         7.74616243327700   13.70971186540727    3.81784524488812
H         8.62722529573317   13.17976388855960    3.48898107134202
C         6.58774423980626   13.63437644403684    3.06401071801510
H         6.58968166741664   13.03661680731247    2.16470513382222
C         3.01794302843687   15.67590711069879    3.01353193471053
C         1.73260644221245   15.75358995330317    3.53496608783775
H         1.18800657219006   14.86020007627581    3.80411838528513
C         1.13640167764861   16.99197712597903    3.70153469952366
H         0.13594496906181   17.04875583752653    4.10296090428269
C         1.81034478535658   18.14685516434229    3.34421715859247
H         1.33568966600198   19.10870648676228    3.46609045292488
C         3.09275574391654   18.07196621186840    2.82154831874787
H         3.61584086335805   18.97254571334005    2.53656964223596
C         3.69386278800891   16.84188955241394    2.65018110572834
H         4.68962017824040   16.76646981234158    2.22954297965849
P         3.20736974942925   14.78876962630117   -1.19375882083220
O         1.83885110055483   15.09416994145946   -1.95862928869110
C         1.27003657596457   14.28795472705716   -2.94127391304428
C        -0.04576301184822   13.88844185239433   -2.76643180448773
H        -0.57731419507287   14.18300179791759   -1.87515948400855
C        -0.64414301052192   13.09429270708473   -3.72800263402676
H        -1.66339047884295   12.77072440101377   -3.58585695213867
C         0.06298782111731   12.70456730432294   -4.85229970723996
H        -0.40295871082204   12.07342098543677   -5.59299921678741
C         1.37252262259105   13.11811678214107   -5.02251149197589
H         1.93105102186893   12.81379423910949   -5.89411876251575
C         1.98177903435066   13.91455987564091   -4.06918281143295
H         3.00294153802902   14.24125108573013   -4.19567131655279
O         3.10471218174875   15.93107901754813   -0.06485474735381
C         2.61145576009787   17.21282645553132   -0.30375034168864
C         1.26241547209549   17.46690282415652   -0.12000969211046
H         0.60039463821159   16.65908371183423    0.15238860436699
C         0.79149925289399   18.75731684651991   -0.28361140310935
H        -0.25890317787545   18.96130278584085   -0.14203351877704
C         1.65952844663035   19.77936909555052   -0.62952762809247
H         1.28701451858074   20.78454061615235   -0.75856488112614
C         3.00599755922212   19.51329291778065   -0.81227809463935
H         3.68507765919073   20.30822869157164   -1.08300462823425
C         3.48844375497140   18.22664363360231   -0.64984953532530
H         4.53592112210812   17.99870405749377   -0.77717751160150
O         4.22466054520184   15.42116924662956   -2.27919411533998
C         5.77742533820101   13.67594136560955   -2.85418776711697
H         4.96916433470792   12.95932566275192   -2.89271094679055
C         7.07656155688937   13.28378909056347   -3.12890215348572
H         7.27960358695705   12.24633585422950   -3.34496780047643
C         8.10036485495888   14.21393846231329   -3.11428417608263
H         9.11434220855376   13.90383738884372   -3.31583191590859
C         7.82303979945336   15.54359945430003   -2.84279361199445
H         8.61822868407316   16.27386585157314   -2.83739784313769
C         6.53038436323541   15.94498624878701   -2.56100423886101
H         6.30039177939253   16.97461937997559   -2.33502645759794
C         5.51305499530873   15.00305625629666   -2.55547320830685
C         5.33839132644660   14.05455659271315    0.22960865464220
O         6.18848614526851   14.89056880325149    0.21545840118881
C         5.54643874547665   12.46004846268348    0.04115152473359
O         6.61442720050067   11.95214958934024   -0.10303984646613

