84
CSD_code = MAKMOA | q = 0 | S = 0 | Stoichiometry = C34H39I2MoO5P3 | MND = 7
Mo       10.99234861155146   17.50122155444817   11.84885177344546
C        10.11638831237535   19.16941365519726   11.45571020573605
O         9.66216624211911   20.22448940434559   11.23647082163411
C         9.41879658156468   17.70835039521556   10.74733660196339
O         8.46168707710152   17.77555909825083   10.08141662421670
I        11.89116562048475   15.96724034152844    9.58721059517420
I        13.25054210801858   16.70967929100036   13.33991637422957
P        10.44399041885340   18.36960332999355   14.01212076129191
C        10.28572001539628   17.03208738625225   15.27150756818416
H        11.25699978746882   16.56680350807321   15.45979710308185
H         9.90728886181025   17.45754980731232   16.20867673649845
C         9.31123114849937   16.01813001287202   14.68593971855503
H         8.30000753147029   16.43700414679339   14.71965575049775
H         9.32435203382002   15.08288803950931   15.25368683604383
P         9.73241067596041   15.67454951105162   12.90618854307945
P        12.63461002003297   18.94125725317449   10.86291317316445
C        11.49933399064817   19.63561001211626   14.75503443949298
C        11.32063669730095   20.94207011019770   14.30078462667933
H        10.54970540206312   21.15132462734374   13.56953440924750
C        12.12016495159659   21.95761452201412   14.78610885441202
H        11.97679432877386   22.97016753937348   14.43718731271908
C        13.10758891031555   21.67624779178554   15.71892384899269
H        13.73711707960588   22.47045293828509   16.09264974875999
C        12.48803229178827   19.35621284708973   15.69153959605844
H        12.64558838472191   18.34743330371204   16.04446682107795
C        13.28913133515093   20.37973496726784   16.16818168337431
H        14.06047909677235   20.15833231656523   16.89050683739426
C         8.79591653649285   19.11080236042487   14.26714377379211
C         7.74346083002339   18.86580383803895   13.39471028694879
H         7.89401147872210   18.26360108465586   12.50856452045897
C         6.26486189296813   20.14393222122135   14.78467850294276
H         5.28496522592906   20.55257557306133   14.98103846238019
C         6.48460524451703   19.38240583967214   13.65057864414525
H         5.67932818545436   19.18696407055893   12.95800552927050
C         7.30526499618468   20.37842990658908   15.67056913894481
H         7.13659067896877   20.96576738826118   16.56123363320420
C         8.56143900108530   19.86207666100152   15.41856117315576
H         9.37090228242771   20.04827691716132   16.11272254633659
C        10.29798647803011   13.94023592478879   13.01772650669983
C         9.40614185349795   13.02449858364059   13.58007456655997
H         8.43436113051482   13.35885510352041   13.92221542280928
C         9.75148415922635   11.69304176178765   13.68270726264058
H         9.05624694067748   10.99097451428447   14.11965613909688
C        10.98436916928326   11.25757103376003   13.21883065519390
H        11.25165560835220   10.21463229625914   13.30009129410327
C        11.86265744573281   12.15798069324200   12.64541690260405
H        12.81903446243386   11.82609833721853   12.27239908275968
C        11.52268036979469   13.49689333238664   12.54046802310294
H        12.22518064626031   14.17615860033567   12.08330811073852
C         8.14235363668056   15.34787662786409   12.08547553504256
C         6.87995907449332   15.69645565979160   12.54770401258742
H         6.74199499911863   16.16680591640548   13.51171211550346
C         5.76475497278460   15.44668632194172   11.76516124851971
H         4.78698099646270   15.72359068026246   12.13266828972768
C         5.89751512558401   14.85518310215610   10.52180580247006
H         5.02347065358341   14.67362459272571    9.91447188843084
C         7.15427893906777   14.50027692606605   10.05690339300522
H         7.26798387762879   14.04074609401466    9.08691343921211
C         8.26843578454420   14.74390279363035   10.83334848952646
H         9.25175056058108   14.46808907816383   10.47028341201627
O        12.44651711647108   19.49819346517902    9.36803263859747
C        11.27444605297040   19.59030513179360    8.57706561343259
H        10.77913216211091   20.54812199201816    8.77774138077328
H        10.57514619433578   18.78290140031470    8.82456509525605
C        11.67306202724483   19.48302683393426    7.11464548346952
H        12.41727073108810   20.23796452187064    6.87358080402899
H        10.79769503316931   19.62872165510420    6.48827711035490
H        12.09058549827557   18.49933851190014    6.91407801916844
O        14.20163067528558   18.74067092751211   10.82920157407123
C        15.03322066260001   17.76558802192064   10.20588967961727
H        14.67564668206977   16.75699058388582   10.42924618452966
H        16.00478054789317   17.89827452930815   10.69226269971842
C        15.14788987912930   17.97004386159909    8.70746128467417
H        14.19975011774270   17.75976633535338    8.22117641985759
H        15.89766495870330   17.29053581429950    8.31230280722195
H        15.43892509954671   18.99444697372683    8.48720319004373
O        12.60631365929728   20.22895269050519   11.81243968966528
C        13.44191996518317   21.37027926393976   11.61118149157325
H        13.77711648517739   21.67271651300715   12.60830864169129
H        14.31233335314179   21.09172093578335   11.01229450285486
C        12.66342574237533   22.48951047259562   10.94059334470416
H        12.40402223445646   22.21156878586852    9.92194315245827
H        13.26651960968069   23.39363813296239   10.91667520193326
H        11.74568475960916   22.68608109975452   11.49026882126788

