48
CSD_code = MAKNOE | q = 0 | S = 0 | Stoichiometry = C19H23Br2CdN3 | MND = 5
Cd        4.91209629809790    9.57360076224459   10.05371856926564
Br        6.15277392553185   11.17616239978415    8.56994850057714
N         6.69326272871928    7.80747790746390    9.27951932793861
C         7.23169195285973    7.93692830635389    5.62211955162940
H         7.98795833832178    8.25642516683492    4.92098785711536
Br        2.95359373488054   10.69513575795389   11.17978719964444
C         6.04632611270698    7.42301005230351    5.19697076583890
H         5.83508022347958    7.31961748173170    4.14365436105744
C         5.07515080320628    7.01854270044755    6.13297581514730
H         4.14732515703841    6.60125132818444    5.76694305795202
C         5.27178903630930    7.14090423530521    7.48127852819979
C         8.07444984777779    8.36690495816937   11.14443493746565
C         9.26450694003407    8.85497163809822   11.61036239662553
H         9.43267217390981    8.91668281994492   12.67662226261072
C        10.28613048907840    9.28561133438135   10.74217053193568
H        11.19999869081746    9.67822536366314   11.16113069664484
C         8.69468831948641    8.58690664639968    7.48737372820915
H         9.45639287809519    8.91611058243366    6.79439085907859
C        10.11605363394653    9.20536642680184    9.39509515507106
H        10.88554086915928    9.53290607780057    8.71230822397056
C         7.49704279129991    8.06952458036510    7.00625305597880
C         6.50263068843340    7.68181832983824    7.96236277453599
C         7.85923892100188    8.27594121320048    9.73573330486816
C         8.91205805721976    8.69106125991025    8.85682343800559
C         4.21584511021195    6.69399774405930    8.45330641869669
H         3.53532707097936    5.98731196088116    7.94863588297311
H         4.70194931741326    6.17780718689132    9.28672812501606
N         3.44534999998527    7.81301712565590    9.01395238311393
C         2.49148858840655    7.28799748194170    9.98767826252545
H         1.93721215765921    8.10990782778672   10.43833990859251
H         3.02318300074205    6.75333327168639   10.77459682223332
H         1.77708723142708    6.59928453654782    9.51581626291821
C         2.71002088558743    8.51263051133028    7.96056797105799
H         3.40576861776023    8.93682576004881    7.23404529967055
H         2.12855643118039    9.32275594155275    8.40386741623673
H         2.01991018255754    7.83521299959752    7.43756201721367
C         7.00708261707747    7.90940504972203   12.09890372479342
H         6.56458673501137    6.98576909486724   11.71357790927188
H         7.46502823122558    7.69908084711551   13.08037903844083
N         5.92258906368660    8.88898297786553   12.25496924669288
C         4.90616545600886    8.33049588549256   13.14301277683336
H         4.07890704373595    9.03189155407209   13.24073322967755
H         5.31599614636062    8.12884440010450   14.14238871345997
H         4.52510928972493    7.39759808369710   12.72795012668474
C         6.42933931318553   10.13142565217261   12.83745106613031
H         7.17345848248004   10.58055861088388   12.17688549096788
H         6.88843313404544    9.95360420634855   13.82048088616604
H         5.60345328213593   10.83337396006417   12.96430612126620

