96
CSD_code = MAKNIV | q = 0 | S = 0 | Stoichiometry = C46H39I2MoO5P3 | MND = 7
Mo        1.43323494684653    5.42053246759863    3.56877069242736
I         4.14202819145408    5.28140390809378    2.73280552690421
I         0.80155264149147    6.75647455531245    1.13797580854989
P         1.39153671019080    3.51213661677152    2.12903420141342
O         2.17347219380399    3.25548257942085    0.77442654054712
C         2.00700581418552    3.86249377667256   -0.46404400651059
C         3.07501794085867    4.57147434266884   -0.99297336868892
H         3.98293005270860    4.67442137048637   -0.41884611239989
C         2.94816361185180    5.15323184324978   -2.24107377474447
H         3.77341892359867    5.71653478700399   -2.64791007409727
C         1.77028590134772    5.02393479073281   -2.95644826768021
H         1.67149497483847    5.48894612331113   -3.92528687584276
C         0.71729892613513    4.29851916107178   -2.42744292169712
H        -0.20255136085249    4.19093438534972   -2.98209131221481
C         0.83172566244602    3.70856591250909   -1.18131386693131
H         0.01721972896468    3.13676391574428   -0.76390902142923
O         2.10570379944602    2.38123403671152    3.00583074001066
C         2.63814937718406    1.20794354425970    2.48161544325050
C         1.81751398360740    0.12409139798255    2.22017840029123
H         0.75213953252244    0.21230125782368    2.37097366446701
C         2.37850296890808   -1.05691906556320    1.76625361909516
H         1.74140544329027   -1.90395554774842    1.55935783693608
C         3.74635568341653   -1.15091099461559    1.57600402750771
H         4.17898504467037   -2.07461200724108    1.22194714816306
C         4.55743830696710   -0.05824729942528    1.83285328996387
H         5.62354175771397   -0.12337414850047    1.67718163661187
C         4.00729381650716    1.12767721628722    2.28372858000989
H         4.62501712217155    1.99110448006759    2.47894327132747
O        -0.02716024009607    2.87102749066859    1.70616836136350
C        -1.30440545359933    3.16046607603277    2.14931416505326
C        -1.91413044520877    2.31677700009816    3.06722486296724
H        -1.36852610940717    1.47128770801354    3.45949889590522
C        -3.20655714748652    2.58292673925770    3.48026314569415
H        -3.67554394769829    1.93490906464926    4.20549439651172
C        -3.89029677051841    3.67601789173179    2.97491678083992
H        -4.89435794858508    3.88657294376925    3.31085814966658
C        -3.28697854797885    4.49492797396872    2.03698849483830
H        -3.81541409545801    5.34383305970437    1.63111663173659
C        -1.99430306545475    4.23812242835613    1.61417429040490
H        -1.52375844572589    4.86413268051043    0.87072822928125
P         1.74776911449584    7.58581512741770    4.68221264003039
C         2.74522167540160    7.45172638491274    6.24543158425318
H         3.29736222306270    8.38297622110770    6.40856697412800
H         2.06001918556304    7.29719697907329    7.08522192831391
C         3.68012005799505    6.25484727090357    6.14202577817241
H         4.12853823759533    6.00677640252069    7.11132706290241
H         4.47586242008311    6.45017353831165    5.41685319958031
P         2.61782539985262    4.85676710466580    5.57605796802216
C         2.55012125813873    9.05055798413675    3.93960468341968
C         3.28793675151894    9.01171714842403    2.76514489303310
H         3.40536552457034    8.09725374321172    2.20485556611577
C         3.88859264177379   10.16498422076747    2.28704130207286
H         4.45668456575653   10.12191505034798    1.37083402822255
C         3.75839292639183   11.35709765358884    2.97468768756561
H         4.22469680616994   12.25524296582740    2.59820199591491
C         3.02386611687979   11.40061294114976    4.15083275710519
H         2.91672418134506   12.33016418883617    4.69083598390260
C         2.42328980756079   10.25623916326117    4.63304530988046
H         1.84161953369329   10.29319726628508    5.54583695001705
C         0.17551050879309    8.34922534422640    5.18118862399858
C        -0.57155513297148    8.87826286984398    4.12745466173108
H        -0.15878946859728    8.87614892015865    3.12615747288916
C        -1.82779501708744    9.40306342756877    4.35355369270268
H        -2.39672773078663    9.80222474526582    3.52762660703799
C        -2.35531349297417    9.40911523051675    5.63521020313002
H        -3.34077631925313    9.81211352351606    5.81490607235223
C        -1.61590471153297    8.89600293738938    6.68578748773352
H        -2.01996786880825    8.90229813772422    7.68799752852545
C        -0.35626905900383    8.36493380944302    6.46493539746282
H         0.19379069909870    7.96924232729833    7.30748177563669
C         1.67951498488422    4.65337629951899    7.13008103417910
C         0.38508375770049    5.13697336573140    7.27298830380052
H        -0.11977963192214    5.60501449353230    6.43778077250716
C        -0.27364532896084    5.02756030845894    8.48554734467603
H        -1.28210292890722    5.40282194743744    8.57827644007586
C         0.35731825763225    4.43887748981582    9.56750136664163
H        -0.15895947058694    4.34807723541405   10.51142629204095
C         1.65413654519272    3.96678756867842    9.43756654351729
H         2.15244712347130    3.51124899343999   10.28066312811416
C         2.31441048680696    4.07614476873541    8.22894388611478
H         3.32634309729976    3.70410242403423    8.13062353250115
C         3.65312837075779    3.37060313656044    5.63640524068253
C         5.04024286434573    3.40769696346419    5.53721114513133
H         5.56136417930904    4.35115904109930    5.46194689650061
C         5.75986639636845    2.22590743616813    5.51293434436485
H         6.83549257422995    2.26153995364336    5.42657305578916
C         5.10605133507881    1.00758694806580    5.58309682545748
H         5.67009314507685    0.08771597212901    5.54600400563651
C         3.72582184276793    0.96735611020300    5.70070613065076
H         3.21345344564610    0.01847473442075    5.76037664919020
C         3.00016469120413    2.14224293408930    5.73349080417610
H         1.92359505881781    2.10981131888529    5.83524411313402
C         0.51192418609813    3.99802643754718    4.47111458579172
O        -0.07504713112080    3.15032729780353    5.00856402068624
O        -1.53616184577781    5.77922055783273    4.33286064425239
C        -0.42831631918744    5.66416917280406    4.01536784908311

