29
CSD_code = MAKPOD | q = 1 | S = 0 | Stoichiometry = C5H17Br2CoN3O(1+) | MND = 6
Co        8.37186998343154    4.18245012841011   12.10644237889827
Br       10.24087625079153    2.68199385473940   11.84841011362463
Br        6.53014244107052    5.70997536220200   12.61631658634880
N         9.64339490304877    5.70996093483176   12.28104010226267
H         9.45422804953489    6.32304033606216   13.07603360140166
H        10.59109100488967    5.34175768942530   12.40323512743353
N         8.28291623014065    4.64173795028975   10.22048577575375
H         7.44586644687365    5.23419485961893   10.17702728963105
N         7.09680403162369    2.68535606671427   11.94985779716910
H         7.29664129227570    2.06289986649645   12.73741398141428
H         6.16239761383202    3.07054316556218   12.11856940782161
O         8.44676540531215    3.75917787003591   14.14200502798785
C         9.59594158573482    6.49856139724169   11.03868147394580
H        10.49803398486722    7.10108526612207   10.90462553561278
H         8.73109644711194    7.16602812328706   11.07824599445176
C         9.43484544734733    5.50304882090327    9.89746675142299
H        10.32566352949911    4.87472462729014    9.81597018503646
H         9.27938770484426    6.01762703275606    8.94477483693978
C         8.10410225977434    3.58378568240606    9.21699971488353
H         8.99359994611734    2.94976529406042    9.21356532373018
H         8.01088922608461    4.04835359869866    8.22942940431673
C         6.86573221149199    2.73817032150064    9.49310148376541
H         6.69082766336881    2.09203634605251    8.63396721892164
H         5.98975998427411    3.38022299676564    9.61168539715285
C         7.04500769448137    1.86572920203462   10.73009942476775
H         6.21455946549640    1.15606056830678   10.79847770107371
H         7.97459464048733    1.29865190879002   10.64775445444542
H         9.22873258358994    3.37480558107807   14.55977659286629
H         7.98083197259909    4.30685514832143   14.78694131691998

