19
CSD_code = MALBEI | q = 0 | S = 0 | Stoichiometry = C7H9AuClN | MND = 2
C         0.75628046698849    2.30026329036507    5.39550478632514
C         0.42579564163717    3.65975675165621    5.60156173289222
C         0.83611758960324    2.03950590844273    7.75710670605614
H         1.00665929764188    1.35307985194273    8.57247868087290
C         0.51749743273853    3.35080502684728    7.97954761445464
H         0.43135913357261    3.72660052184380    8.98565565686349
C         0.31024422006468    4.17747814996293    6.87659124859810
H         0.05949791562859    5.21720504997731    7.02543422632156
C         1.28597913002920    0.15680270224154    6.34626433142040
H         0.46190896665650   -0.37241059095681    5.86716791812368
H         1.49171358274595   -0.29900745022833    7.31282851635779
H         2.16118390894090    0.05762529568250    5.70511335763481
C         0.20692439623182    4.53550345883473    4.41235933227452
H        -0.09180962294560    5.53722735033417    4.71123238398034
H        -0.56070705494143    4.11106453372220    3.76834791774304
H         1.11976309709365    4.59938964164725    3.82255867283833
Au        0.91683674603092    1.52003464828455    3.53863126777384
Cl        1.09658438986548    0.61978657859330    1.48759375872203
N         0.94857076241704    1.55568928080718    6.50612189074730

