33
CSD_code = MALFAH | q = 0 | S = 0 | Stoichiometry = C9H14N3O6Re | MND = 6
Re        1.42239562615069    2.11650419888584    0.01872112882247
O         3.43066084507717    2.11654043265916    0.59678039493576
O         2.00978351960148   -0.25603569851920    4.54961294350277
O        -1.66916729311505    2.11674881606630   -0.11616884574335
O         1.75340690173272   -0.12228359379842   -2.08005595909894
N         1.47337755540925    0.71282739533038    1.87683071322477
N         0.61252801736934    2.11638521095436    4.25030418376937
C         3.48769936336232    2.11652134125006    1.93774921735178
C         2.79503841457708    0.83683092048748    2.51102229041708
C         2.72368398498791    0.85680481472022    4.04219630078417
C         2.03521034026319    2.11643351361450    4.59117718633595
C        -0.51635586707402    2.11647863022083   -0.11539627289126
C         1.59090910323398    0.72784648860051   -1.32694434950586
H         4.54195072930698    2.11649857981727    2.29404732938611
H         3.41506223452391   -0.01097155796938    2.18981208982044
H         3.75619752962678    0.85351369544637    4.42755468527556
H         2.17890820292642    2.11641200733803    5.68479355529604
H         1.25454807264242   -0.26452307353047    1.69509636752584
H         0.77570205503007    1.05322642712639    2.54629099622298
H         2.49105118351251   -1.06329101292475    4.33941096783440
H         0.18616945857780    1.29626998259289    4.67437544323519
O         2.00952721645020    4.48888877226544    4.54968368124228
O         1.75395733600362    4.35469916244407   -2.08053569161251
N         1.47347625104118    3.52040231428547    1.87680237018303
C         2.79507443142158    3.39622020529050    2.51109188711107
C         2.72358816346299    3.37614786678208    4.04226607708566
C         1.59091493234593    3.50512891990477   -1.32693595981281
H         3.41519720582147    4.24400155084621    2.19002026697747
H         3.75607048547998    3.37952980263764    4.42770178005594
H         1.25488608337289    4.49775893826986    1.69482810377417
H         0.77565261017432    3.18029869987887    2.54623875459062
H         2.49078061033610    5.29620315846265    4.33967526001117
H         0.18611469636672    2.93648309056416    4.67435310389272

