81
CSD_code = MALFOV | q = 0 | S = 0 | Stoichiometry = C26H45O6P3Ru | MND = 5
Ru       14.95390982991171    4.77760586766154    4.62458835165049
P        13.66972121806537    4.92858747742132    6.55898841673903
P        14.94879105847856    6.99773063973138    4.35091295228147
P        14.96691450071533    2.53002218413467    4.81484059767492
C        13.49622807224912    4.72637667068919    3.44263588394404
O        12.64136000977227    4.72187855959502    2.65948325964796
C        16.79069941079532    4.73735499863949    4.37086462129119
O        17.91418240611481    4.69062139583105    4.05158215151808
O        15.96868840826669    8.00171482962694    5.10658953146650
O        15.11743602350264    7.38558043259411    2.80053007418227
O        15.85684018275294    1.77623571983240    5.90913709689359
O        15.34093395575556    1.64798052111803    3.52085959689383
C        14.31255223971087    5.01941383001789    8.28227731466673
C        13.51661278737469    5.06523050663272    9.42300797025032
H        12.43828562130176    5.04393232805180    9.34606214354145
C        14.09807877972146    5.13830702115690   10.67511703181384
H        13.47148145760961    5.17200944680772   11.55505597941611
C        15.47751370853123    5.16886824503561   10.80795225764556
H        15.92390671462863    5.22617318756462   11.78985835739912
C        16.27812781516559    5.12539461334707    9.67981386917241
H        17.35417497402346    5.14843234457275    9.77445844477871
C        15.69373236689431    5.05037134961576    8.42869554920168
H        16.30495501201124    5.01242728691189    7.53277673374213
C        12.46677868917528    6.33995806545770    6.59420906992630
H        11.71537502564179    6.13713998724232    5.82254153007361
H        11.96498623486418    6.34407155478484    7.56740849956455
C        13.10857289044127    7.70137672082576    6.34127290289759
H        14.02715303356978    7.78739791903168    6.93152849109295
H        12.42180105441305    8.48412037472393    6.68102447565419
C        13.43880762425819    7.93382293630624    4.87199121752244
H        13.65244514339867    8.99436294993408    4.70121270652404
H        12.60594475058768    7.63112307761899    4.23170942446875
C        17.18267732511325    7.62732657972685    5.75171182706828
H        17.15726752847035    6.54083010561074    5.93369480849698
C        17.24480737337243    8.36562748954755    7.08366831228886
H        17.20944873724609    9.43952142802674    6.91567645402154
H        18.16523319870482    8.11675395221403    7.60408979431334
H        16.40181019978574    8.08052646633584    7.70965808943490
C        18.36727300696001    7.95722931913880    4.85393849219009
H        18.31322717817423    7.35857392549990    3.94725977036560
H        19.29806332539929    7.72925815714909    5.36617627464345
H        18.35412476779727    9.01209928588769    4.58757320945087
C        15.30247554057677    8.71590436222378    2.29391317777979
H        15.48243010207231    9.39923535816288    3.13426848038984
C        14.05261106033304    9.13795044406932    1.53094887597722
H        13.85730946670169    8.42513689213604    0.73376307883560
H        14.19489724646139   10.12551779805115    1.09926042229043
H        13.18883245752216    9.16166431454233    2.19008459728396
C        16.52449576901235    8.69517138188751    1.38354558244403
H        17.40113418312271    8.37992707913515    1.94256835203601
H        16.70269499749534    9.68488083450702    0.97081962326510
H        16.36262270728159    7.99076211296593    0.57177999742344
C        12.39855154231004    3.59081523112086    6.74316872441006
H        11.83777669522203    3.76497012625311    7.66726296801589
H        11.70686856357455    3.70144543063809    5.89950623196011
C        12.97643498674522    2.17790638817392    6.75013419858791
H        13.83734455956016    2.13763819626885    7.42503220540754
H        12.21764483503069    1.48934965139268    7.13716567001380
C        13.40995748513052    1.71057168751119    5.36642923092407
H        12.62688956735449    1.89928471616362    4.62725541655154
H        13.63437767009240    0.63949406461075    5.37405436006564
C        17.17212102153649    2.15397165827417    6.30915514901026
H        17.25621140929902    3.25028527095904    6.24042912329643
C        18.20483092485454    1.51166428759572    5.39450661023380
H        18.07479568626740    0.43219132128268    5.38843209145544
H        19.20856713374535    1.75356727214567    5.73393075357667
H        18.07516256537330    1.88515396459435    4.38192327458952
C        17.33733399888613    1.71894339375110    7.76056032116439
H        16.58517945292921    2.20002949377688    8.38216884238258
H        18.32331246076207    1.99570967965549    8.12309598379264
H        17.21817478556214    0.64107819499471    7.83806060608038
C        15.32920485056181    2.13326211028467    2.18109555206833
H        15.32680140915010    3.24116268331399    2.21535580702442
C        14.07228813140707    1.63864435351147    1.47746083162104
H        14.03138285549923    0.55204243458795    1.50716220017899
H        14.06909256600588    1.96941628486606    0.44262864084063
H        13.18981237737373    2.03656591561881    1.97321680916391
C        16.59783529719915    1.64465733150098    1.49370875055895
H        17.47161747482659    2.06128751925098    1.98819506291142
H        16.60139986699710    1.95965680867545    0.45411286958397
H        16.65150265542082    0.55941419986881    1.54020599101005

