81
CSD_code = MALGAI | q = 0 | S = 0 | Stoichiometry = C26H45FeO6P3 | MND = 5
Fe       14.80846387291526    4.64784232598671    4.75755471796227
P        13.67859940306564    4.78530581244750    6.58401585433689
P        14.87693740515390    6.72285271072213    4.41980943361116
P        14.95907393102670    2.53513203520308    4.85741490681415
C        13.48026022022019    4.57692971636324    3.60616248614954
O        12.62384804160924    4.56432078276567    2.82616408303318
C        16.51384161344529    4.63998870580508    4.40198371617670
O        17.60116758520372    4.62352847119653    3.97753715863736
O        15.94446495061188    7.72338973184323    5.10806764309722
O        15.06167301812167    7.01528594017115    2.85259154004801
O        15.91297964315802    1.78236734278995    5.89407724509856
O        15.37390315956820    1.74977606915397    3.51718333040151
C        14.37673449418598    4.88482080569511    8.28323516745123
C        13.61697409736002    4.95227217230235    9.44812892412760
H        12.53664442561948    4.94559046458650    9.40420402584849
C        14.23800157428338    5.02775624934331   10.68081658743458
H        13.63986215279348    5.07880251077741   11.57959463533357
C        15.62131612140841    5.03793367324597   10.77098670724827
H        16.09896456669223    5.09739481316940   11.73800773057948
C        16.38582469099047    4.97041848978548    9.61947159057049
H        17.46465604342486    4.97613666146097    9.68096077088332
C        15.76167992775798    4.89375922012375    8.38766606568006
H        16.34146838049818    4.83703342969826    7.47490673904772
C        12.45596979472600    6.17732167816449    6.64710783076765
H        11.69229579293874    5.95371224275611    5.89313185123274
H        11.97544155181073    6.18063890576793    7.63104234862415
C        13.06776193572700    7.54608667838063    6.36515028866962
H        13.98081688017832    7.66619408286460    6.95762063244820
H        12.36310516078081    8.32379465663558    6.67935270298277
C        13.40416652076038    7.73770733356392    4.89234234553962
H        13.65447989753364    8.78556841233076    4.69283978425897
H        12.56435230532243    7.44257654427137    4.25792553010199
C        17.12368037227255    7.36676742243892    5.82326512507094
H        17.11073118327101    6.28161518790862    5.99501126854704
C        17.10004776919148    8.09147595418294    7.16395426273302
H        17.04251067400747    9.16591006757370    7.00585658213176
H        18.00037258897202    7.86168651195856    7.72676295271109
H        16.23710381361835    7.77428258377419    7.74590357224716
C        18.34797164054734    7.73361659646611    4.99507417707037
H        18.36769314718649    7.13617175623644    4.08672249601111
H        19.25411825085897    7.53616956664458    5.56141619871362
H        18.31643859878147    8.78741614843885    4.72660839624103
C        15.34476596957315    8.30021692428956    2.27710583426512
H        15.57493133836776    9.01103929699365    3.08156781158536
C        14.12933142141757    8.77492269085572    1.49036402818513
H        13.87814109091730    8.03935926878236    0.73025401091029
H        14.34563669262293    9.72543381408804    1.00901911656198
H        13.27182582624911    8.89803605022000    2.14670724908900
C        16.56189850363028    8.14056855949286    1.37408627997196
H        17.40591904790548    7.76974044368312    1.94942451552580
H        16.82776545445204    9.09558901172285    0.92815848801886
H        16.34210774579062    7.42452856673546    0.58624273741582
C        12.43427286082963    3.43245693305441    6.81614069185717
H        11.90242916651928    3.59809305262253    7.75897857086364
H        11.71518839970927    3.53568630525446    5.99474275980988
C        13.03340394005084    2.02937384333258    6.79787546961258
H        13.90006444662199    1.99337733575044    7.46542017323338
H        12.28969074379978    1.32039859024581    7.17781907993831
C        13.46609392345434    1.60210162027572    5.40163560963966
H        12.66302070915697    1.76404209877440    4.67782987951876
H        13.74919839776276    0.54483633274856    5.38598860223773
C        17.23468474116444    2.16517983590652    6.26682155165087
H        17.31574314832604    3.25909769323887    6.20394215814355
C        18.24936122553304    1.52881808617692    5.32763323559903
H        18.12456897525603    0.44869754725726    5.32547911871788
H        19.25945244978175    1.77498314287226    5.64497274170317
H        18.09573059697712    1.89906605631992    4.31759317359033
C        17.43481604504644    1.72060151999154    7.71118938015845
H        16.69081399483194    2.18832606949653    8.35234922377147
H        18.42540838823314    2.00429261442446    8.05572511393432
H        17.32824390281109    0.64096779071259    7.78206262853517
C        15.28326186250167    2.26713125357748    2.19209498822879
H        15.16866111141867    3.36281565752647    2.25660857083620
C        14.07048937942220    1.66218527429618    1.49826256479705
H        14.14490018388555    0.57697941334191    1.49633468302053
H        14.00965555792173    2.01938505811243    0.47400126341744
H        13.16255756678606    1.95069570244569    2.02247932038437
C        16.58228569907516    1.93117387271670    1.47020510909271
H        17.41574487225644    2.43400311472644    1.95422500969741
H        16.52870113828258    2.26060978213878    0.43638808512888
H        16.75513628405782    0.85763931079540    1.49614176566801

