67
CSD_code = MALGIQ | q = 1 | S = 0 | Stoichiometry = C19H38FeO6P3(1+) | MND = 6
Fe       -0.39257493190220    7.11060657195615   21.67143346574253
P         0.83046007017287    8.71086136960504   20.78395671924610
P        -1.79669630989965    7.09169603870987   20.02816588569560
P         0.98944372813595    6.94147086750870   23.33532793526975
C         0.49323799411877    5.81600618845375   20.89913766510686
O         1.06214953866420    4.93866037439505   20.43675353860367
C        -1.46126690200447    8.13254793150251   22.62563292788647
O        -2.19230320737847    8.66679991042582   23.30974725110508
O        -2.97454596650917    8.11593776289203   20.30740735002182
O        -2.65640965385323    5.77504846231980   19.69514922715900
O         1.13358452059586    5.64827858928165   24.27741974117189
O         0.71820923557143    8.17311617870815   24.33969190869771
C        -1.61725710463883    5.74866116776656   22.61915313990426
H        -1.77908670377315    5.98195491324523   23.66928343995418
H        -1.17813165876543    4.75211598703257   22.57992964945708
H        -2.60462890559373    5.69412146288860   22.16381796311408
C         0.59114544446481   10.37476256047410   21.57058936780073
H         0.54543375806848   10.14938412375374   22.64623474472011
C         1.68116078117256   11.42111993260634   21.33234350725347
H         2.66632769876359   11.04561314517533   21.61160063147939
H         1.71094082424465   11.70223918012264   20.27739747366810
C         1.37085951051266   12.66283203293048   22.17132312924468
H         1.39620251676108   12.39566287265543   23.23035326668087
H         2.14070711540744   13.41668613457460   21.99960601883167
C        -0.00072125965308   13.23557332483084   21.82790651691364
H        -0.00020237537314   13.58285919672832   20.79240408564243
H        -0.21009190382811   14.09472057328709   22.46575524123270
C        -1.08548324742098   12.17724787791946   22.00606054672898
H        -2.05496344085897   12.58501820242369   21.71639319956444
H        -1.14662706428801   11.88216834206715   23.05549901733908
C        -0.76068253161548   10.95644765771093   21.14997058584959
H        -1.54685445728634   10.20267092327082   21.24233310597238
H        -0.70836059585561   11.27244103540935   20.10556600173771
C         0.76269089750562    9.01816314534472   18.96459344804504
H         1.20044201067938   10.00806553151435   18.79612786866488
H         1.42682320376547    8.27977582498966   18.50083761573810
C        -0.60879122685780    8.93513309759572   18.30139516742498
H        -0.50717705806663    9.25665177416667   17.26072307443649
H        -1.31191439039899    9.61114826741255   18.79126571890237
C        -1.17181384459546    7.52249429374582   18.33847691379863
H        -0.41253452242299    6.79825314941821   18.03620219610470
H        -2.02718148112285    7.42400890807523   17.66041188109913
C        -4.14574995304835    8.26101974007936   19.48990164543004
H        -3.94146501949749    8.91427680254962   18.64105967832201
H        -4.90102207911274    8.71847527176906   20.12700044208760
H        -4.50181412538354    7.29373817864527   19.13972624194671
C        -2.11762545659574    4.49103114389753   19.41662623588794
H        -1.44557843427916    4.51732519779806   18.55834739636491
H        -2.96792508519011    3.84887013660038   19.18889969873707
H        -1.58891358684802    4.09555753566197   20.28346229637696
C         2.64685890328620    8.41236322502981   20.87131504678967
H         2.84089127469679    7.48348937880498   20.32296023099553
H         3.14347936412950    9.22617096734225   20.33221205383050
C         3.20373241387847    8.29516662514589   22.28623836713711
H         2.86437655095811    9.14153623061653   22.88872112357127
H         4.29564802389832    8.33829423394385   22.24011441401624
C         2.79112096705046    6.99659015098604   22.96283354338777
H         3.31549974119652    6.87283009705878   23.91536004299417
H         3.03362962375905    6.13557287531817   22.33846271500046
C         0.20053127554490    5.16814856859358   25.24351019415170
H        -0.45763766225693    5.96195251469743   25.60048977823945
H         0.78990860068866    4.78662650247887   26.07875672127614
H        -0.39146292671856    4.35435742347994   24.82661439394223
C         1.45924592964098    8.38130232747144   25.54652892354123
H         1.88355379557947    7.45027953813458   25.92478063848386
H         0.76320495619357    8.78768583951499   26.27988314123865
H         2.26079480380044    9.10021460947686   25.37321690323905

