73
CSD_code = MALHIQ | q = 0 | S = 0 | Stoichiometry = C30H36NO2PPtSi2 | MND = 4
Pt        2.57254556933955    4.14995052078214   10.75181552351917
P         1.80115379522656    2.45780908014238   11.96083597219196
C         1.75898087230716    2.43710312558338   13.77010258422797
C         2.93306673341958    2.06649098161672   14.42336613130017
H         3.77786404951924    1.73768145663005   13.83409348804195
C         3.01050605084211    2.13854930921274   15.80055685161571
H         3.92088270637540    1.85255470288788   16.30567286939712
C         1.92255912848862    2.58914940758992   16.53313311907997
H         1.98379047942659    2.64797424477747   17.60953083017057
C         0.76082105471081    2.97650162357662   15.88551542515160
H        -0.08117903457589    3.33862245687201   16.45709395475529
C         0.67796391876425    2.91123919752161   14.50574507071261
H        -0.22371695924295    3.22660583253612   13.99872166219754
C         2.43755548088995    0.82124130446255   11.50221519368092
C         2.17705675815122   -0.34279370506859   12.21705971927026
H         1.58968588537952   -0.30416087053357   13.12407280729838
C         2.69550034596337   -1.54690751553907   11.77526521824115
H         2.49699961066613   -2.45273133499134   12.32925431536538
C         3.47459159902305   -1.59247560879249   10.62971571425216
H         3.87926502899718   -2.53568274642151   10.29380828370715
C         3.74723636068236   -0.43072324108474    9.92446617829012
H         4.36938504273426   -0.46665797403169    9.04294888874649
C         3.22965170851963    0.77560601476506   10.35885770292100
H         3.45303032313598    1.70604057446140    9.84534243998188
C         0.05129778454597    2.41326719606421   11.43410812194218
C        -0.86710498132223    1.48654856777313   11.91604529278263
H        -0.54588160354934    0.75689507647074   12.64416173595820
C        -2.17576311593408    1.50205950268859   11.47319346222307
H        -2.88565253845420    0.78210461427661   11.85053401501158
C        -2.57208458763708    2.44857277413395   10.54222198795116
H        -3.59303584874245    2.46918459700452   10.19263465587993
C        -1.66398087953035    3.37062288871308   10.05291362257541
H        -1.99591747001595    4.09586840198731    9.32531002031782
C        -0.34366392985384    3.36303887697627   10.48939806632680
N         0.61853401436076    4.31934499600501    9.96661490349462
C         0.18916243019245    5.69514873539499   10.24707754045120
H        -0.73634055023098    5.94796024625134    9.72042339954608
H         0.98222476662825    6.37104366367332    9.92280503573647
H         0.03022072805569    5.81130958577971   11.31979263380071
C         0.78487885717777    4.12259902518446    8.51887119984633
H        -0.13670747947113    4.34814143467538    7.97312433268973
H         1.06751315184071    3.08637395210248    8.32731970776587
H         1.58190409521379    4.78511758318257    8.17502978340592
O         4.45909862501226    3.97000486679207   11.44733666307526
Si        4.91571513750792    5.17959064892826   12.37586096742983
C         6.06549978925725    4.44900032774040   13.71909008878587
H         5.72872319933185    3.46908041543692   14.03701791740214
H         6.08835158391165    5.08986321115720   14.59249319927330
H         7.07987852751434    4.35032347132042   13.35115906314821
C         3.36290751140854    5.91522022347494   13.25664926893036
H         2.99621603386228    5.24302759231003   14.02948141985195
H         2.56603130019000    6.05145727428751   12.52170253417246
H         3.55227607031172    6.87939721636878   13.71646641779060
C         5.84219186287244    6.62371917399819   11.55158389110238
C         6.68704679052809    7.38205463363758   12.35804554550943
H         6.78220320805509    7.12854804503888   13.40461852310026
C         7.41097639826297    8.44798598598965   11.85858660670131
H         8.06000754573707    9.02084093534167   12.50822445158118
C         7.29885110474945    8.77335455668875   10.51856581360615
H         7.86178296011828    9.60187458662215   10.10847651480465
C         6.45971974192100    8.03131511729698    9.70860107729096
H         6.37558745636538    8.29531260877942    8.66429852980443
C         5.71979753846675    6.95909602134994   10.19876754110002
Si        4.59548641421981    5.99239997399827    9.00234738067521
C         5.54480564721793    4.42224044495035    8.43954958942753
H         5.06486272305510    3.94742827802242    7.58676747196932
H         5.56828637308217    3.70686509356755    9.25596113917695
H         6.57066989929485    4.64192550501563    8.16079244369848
C         4.32651519808248    7.06462543582952    7.43759356301999
H         3.59566756847322    6.61607982220778    6.77265758358344
H         5.25166519473020    7.16536625763282    6.88348096699054
H         3.97587522951126    8.05853648314378    7.69109725011917
O         3.13130401509682    5.69717723784001    9.54145711511690

