101
CSD_code = MALKOB | q = 0 | S = 0 | Stoichiometry = C44H54N2Ti | MND = 12
Ti        4.23827328606842   11.52673440388453    6.24544747652301
N         5.25319643733466   10.33956050522547    7.30266657030296
H         5.95315285126759   10.77406385096519    7.90528409151128
N         2.57563395702914   10.64331099260693    6.32549008016000
H         2.02806799338883   10.65533911497656    5.46473553995081
C         5.47537413409339    8.99179306882550    7.25876141078235
C         6.61436349800385    8.43116667190106    7.86117111234065
H         7.31709798606702    9.08371720873112    8.36694846347618
C         6.85158917742890    7.07301253279384    7.82045574932269
H         7.73978529532118    6.67674676913502    8.29319087377680
C         5.96787593600549    6.20823927989362    7.18809043211493
C         4.82788297667470    6.75424219601773    6.60535687371975
H         4.11771623927437    6.09667148400792    6.12298144880400
C         4.57775438137085    8.10900958966445    6.63505204091422
H         3.66927947259129    8.50890353458859    6.20513027062640
C         6.23408233086361    4.73426374453097    7.12200817272566
H         5.30796012944622    4.17082826936024    7.21619464939005
H         6.91476204351954    4.42626863048466    7.91231333962518
H         6.68742787282362    4.47439622805918    6.16414079208164
C         1.79353161708374   10.17837538837019    7.34464723836410
C         2.31469664222086    9.90701373604090    8.62038908757835
H         3.37426975238682   10.04664928868270    8.78964291583944
C         1.50092813067112    9.43528354451322    9.62831714627202
H         1.92965526940234    9.23203551145428   10.60006910148382
C         0.14376501058478    9.20754270279631    9.42535206306282
C        -0.37523542231456    9.45812677116809    8.16083870591156
H        -1.42484733158475    9.28002906797418    7.97109119435059
C         0.42528676827831    9.92831851312412    7.14191747019261
H        -0.00297962315551   10.10932330748643    6.16251724031230
C        -0.73791753403326    8.71895247008693   10.53533826304125
H        -0.15360347103099    8.20829151274551   11.29717831090636
H        -1.49502150052144    8.03550324549651   10.15595395863832
H        -1.25144372429469    9.55757324104555   11.00833081630258
C         5.32849825614456   13.28134789426397    7.67251989764702
C         4.22795762368464   12.71876329137434    8.36733920336615
H         4.25029984293198   12.24377307527069    9.33821971493205
C         3.04839960206161   13.01231658766143    7.65562928310389
H         2.03951091234119   12.83604924037417    8.00885538770584
C         3.41242697570250   13.74012987096093    6.50264127518474
H         2.72440353397682   14.21795289519477    5.81445021830701
C         4.80761971647671   13.92826132627965    6.53851110805283
H         5.36449167907146   14.55660557788983    5.85939766022208
C         6.78435388739658   13.27319839142923    8.09208941236739
H         7.31277674542411   12.48935582268069    7.52038317958174
C         7.49191102225456   14.60430045339027    7.77908779983161
H         7.37222053216879   14.84216410294527    6.71713047020859
C         6.89466626340337   15.72761826376953    8.62378498954461
H         5.82794463138008   15.82227805528394    8.40957574541274
H         7.37728316703461   16.67494556515837    8.37176954885310
C         7.09937163628712   15.41403070326709   10.10450176879487
H         6.67517914218571   16.22222272453958   10.71097446568451
C         6.38967673738198   14.10349101699007   10.43643126360894
H         6.51606410102004   13.86842742366563   11.49607845431724
H         5.32191905055254   14.20691282935354   10.23719436889005
C         6.97648458892002   12.97472874471598    9.58848966342490
H         6.47988155397924   12.03084379276317    9.84515751632215
C         8.46941624885095   12.84063512011164    9.89251692626480
H         8.60953523755632   12.59809498511980   10.94860143943165
H         8.90152630862495   12.02636462892337    9.30404171090653
C         9.17989431295111   14.15199441455740    9.56215990981180
H        10.24994110858192   14.05226571956537    9.77768655827172
C         8.98447835100723   14.47235412446819    8.08211634886859
H         9.42312139721316   13.68132552000413    7.46777139496336
H         9.49353997492647   15.40683496566812    7.83418183015565
C         8.59141713499631   15.28142097440329   10.40617008064762
H         9.10322569886765   16.21967207756329   10.17938206925088
H         8.73841207429533   15.06852086221659   11.46765209319289
C         3.71823412842275   11.58695250635966    3.76649592546948
C         4.68167517001408   12.57911764368068    4.01488813487783
H         4.59225732490093   13.62307585826053    3.75280640346605
C         5.83906179199361   11.97415333839801    4.54194462357510
H         6.78974370865258   12.46490500059675    4.71565934185733
C         5.61463927772214   10.58172006619473    4.58276999681190
H         6.35812436765419    9.81928067133317    4.78339547654261
C         4.30377094367529   10.34545040690544    4.12049577481130
H         3.88412445521535    9.36241942370233    3.95988040754244
C         2.34953333255401   11.82417443235016    3.16241366653893
H         1.67517214888284   12.19933004257391    3.95286427303459
C         2.37375585615868   12.89761001990310    2.05857377728042
H         2.82051769629891   13.81666665186432    2.45116285605323
C         3.18745495807444   12.40706699281438    0.86319191636633
H         3.22838891832919   13.18790831228794    0.09996600436785
H         4.20944950163070   12.18723364238222    1.17944714984394
C         2.54034170956588   11.14810031076037    0.28970113612152
H         3.12074553794518   10.79882637682071   -0.57173978526066
C         2.52665181235275   10.06540352390709    1.36598921590137
H         3.55100671441052    9.83787301978877    1.66441672638212
H         2.07724904663078    9.15102100290142    0.97090858450692
C         1.72116853145954   10.55105033881843    2.57150694427928
H         1.69572602977232    9.76168131636633    3.33302336248758
C         0.28833374762797   10.85280087215594    2.12924700199295
H        -0.17482098561449    9.94440323782761    1.73677763737378
H        -0.30681244214232   11.18702633848925    2.98373258898720
C         0.30109191566285   11.93577723057697    1.05175541223231
H        -0.72702201602629   12.15305389819593    0.73989524142246
C         1.10944453767205   11.45279166861090   -0.15129152642725
H         0.65096630097489   10.55452225751676   -0.57155284327657
H         1.11353783602089   12.22081974161352   -0.92832944715026
C         0.94267681681427   13.20172967345380    1.61509815906057
H         0.35848479188973   13.57117339032486    2.46226338722992
H         0.95271690295714   13.98359337378568    0.85194681815811

