41
CSD_code = MALRIA | q = 0 | S = 0 | Stoichiometry = C19H16AuN4P | MND = 2
Au        0.78845751050807    2.58707674593613    5.35782083750573
P         0.89930139054054    4.64876197417446    6.20895782015359
N         0.60287063757888    0.72748512234347    4.64511327179892
N        -0.47456772200764   -0.01263596441534    4.95968830882937
N        -0.37057873173457   -1.14931951195047    4.39600433995118
N         0.75100246514043   -1.23084428326874    3.69258500881649
C         1.34258710747023   -0.06935732305711    3.85289877438403
C        -0.71936904951436    5.35698882203946    6.61559073448866
C        -1.69028380774594    4.47804269406363    7.08742084404240
C        -2.93978335616490    4.95396431987656    7.43827914304908
C        -3.22507862539033    6.30444200503925    7.31293054453130
C        -2.26193972172731    7.17951526405624    6.83630822497375
C        -1.00780862834037    6.71223603774981    6.48676870623108
C         1.83676247870805    4.79423693057042    7.75506061305674
C         1.59603139487322    5.81096740656460    8.67452196380840
C         2.35247718456577    5.88083157286334    9.82985981304557
C         3.34508062613786    4.94384055956825   10.07203188895605
C         3.58323705767452    3.92879413913996    9.15944567719016
C         2.82825179857115    3.85012793899043    8.00347195690563
C         1.64644282114969    5.88310541798377    5.11201089138441
C         2.79429695523669    6.59935111621547    5.42827472475170
C         3.32012878343456    7.48792450644777    4.50571904764161
C         2.71116112679775    7.65810889143596    3.27373618269597
C         1.57230193184542    6.93425145749412    2.95214477837879
C         1.04407414485759    6.04297565029395    3.86486101012506
H         2.27913827060675    0.22246387454432    3.42388435677089
H        -1.45926378187631    3.42299837739381    7.16604824296582
H        -3.69249948081384    4.27118718046917    7.80210199983763
H        -4.20259700976579    6.67580953586740    7.58149249879208
H        -2.48862959536008    8.23063277520589    6.73456827383700
H        -0.25716577682296    7.39284332311076    6.10760403138484
H         0.81815338010741    6.53770304748295    8.48485652980293
H         2.16604564940117    6.66795374302705   10.54537117497707
H         3.93075484574312    5.00259713316175   10.97706441547758
H         4.35255990576566    3.19600202067525    9.35106127071492
H         2.99587232224970    3.05609481962503    7.28637631108167
H         3.27118551541822    6.46343502292687    6.38905063055130
H         4.21052990370785    8.04769521793899    4.75074339401078
H         3.12674152196578    8.35235315313599    2.55900606273014
H         1.10223415270110    7.06255458389551    1.98872190821602
H         0.16018440450798    5.46390470137891    3.62684379215370

