66
CSD_code = MALSEY | q = 0 | S = 0 | Stoichiometry = C30H29CrN2O3P | MND = 9
Cr        1.77718090784797    5.91401168883802   11.35108948501598
P         3.57692549596950    8.57668260752139    9.37270419833330
O         2.05235001297880    4.39566173829607    8.80879610237907
O         3.87028621742470    3.94269927406627   12.11958386135290
O         0.09676409187967    3.50129274981794   11.80557104043726
N         1.09762708072267    9.47927148503320    8.66536023135953
N        -0.66156701925377    7.97047690334013    8.64254381140884
C         0.53432698363984   10.48612811084489    9.56281267388614
C         0.53004308237974   11.74224432856274    8.70096699801983
C         0.16175100774223   11.21714136797450    7.30537692848551
C         0.42500828148873    9.70931535664493    7.38202428825751
C        -0.83926236435858    8.81671570766626    7.44929929672409
C        -1.05050461134870    7.84899715089635    6.28296315350407
C        -1.78035161551510    6.69207839444331    6.96003129407625
C        -1.09507952122568    6.61074598942428    8.32888799966488
C         0.74142954014985    8.11316918957647    8.99691674825659
C         1.10879436168181    7.82392724729006   10.42037699548520
C         2.48021550228512    8.00268533241588   10.74090321662100
C         2.89844802163485    7.75586972754502   12.05203044569002
C         1.96123413693863    7.42572719961018   13.05380543487647
C         0.60911599847095    7.31268997330721   12.73333911983388
C         0.17454941632833    7.52074102108434   11.40996458658359
C         3.80668259092953   10.33959039932124    9.84174300430162
C         3.62203944607230   10.86920213625321   11.11316631726254
C         3.82740431896259   12.21883183454096   11.34088828305168
C         4.22122208613311   13.05133706891567   10.30651350901951
C         4.40623631208859   12.53106444587149    9.03606431070163
C         4.19241018093183   11.18444991423519    8.80606371301837
C         5.14505313568016    7.88813568276776   10.05708336934139
C         6.21562189093057    8.65012445774592   10.50936937149943
C         7.36482989467220    8.02813356603826   10.96737281385255
C         7.45949667246916    6.64700299718205   10.97095564456641
C         6.40592928501735    5.88164517714640   10.49561553449485
C         5.26154911151316    6.49922126215306   10.03029347180264
C         1.95133488127454    5.02839953034249    9.77414207981354
C         3.08128106742716    4.74282660398097   11.85066015821504
C         0.72142100283144    4.46437602534187   11.66512110629295
H        -0.48709568526589   10.21867649667835    9.86486817989699
H         1.15276955173630   10.59493338948459   10.45478473659597
H        -0.17046282772920   12.48975000462947    9.06763667894201
H         1.52978208091211   12.17561516650993    8.69042470593499
H        -0.88481577355059   11.41207361636214    7.07224895464409
H         0.77024115776826   11.68542374406384    6.53411290602588
H         1.07869647409212    9.36503312965958    6.57533409946287
H        -1.74038157814217    9.42588316391447    7.59267974955947
H        -1.61725232987593    8.29459264806644    5.46810203584157
H        -0.08633220563804    7.51064982298162    5.89830401837669
H        -2.83596996997768    6.93857121357067    7.08184024819193
H        -1.70049246468621    5.75718181803611    6.41002811640803
H        -1.77650317337584    6.24970852098770    9.10364155747744
H        -0.23525790559820    5.92992329872869    8.29251753740318
H         1.37459217938556    7.45832325267433    8.35375684577747
H         3.94019976550256    7.89387144937110   12.32442752612882
H         2.28980425219036    7.32400607136117   14.08167025410370
H        -0.12017571225872    7.13006033034660   13.51427969933606
H        -0.87933045905908    7.50304303754663   11.16408104971106
H         3.32089321523794   10.23426788997650   11.93549120281783
H         3.68119250221580   12.62278211674441   12.33279982321824
H         4.38315156133160   14.10306275611192   10.49160923470090
H         4.71216342348794   13.17697777837526    8.22572865082567
H         4.32338582213203   10.76967284202293    7.81609161349957
H         6.15346411356397    9.72960485242375   10.50995020450636
H         8.18915260276332    8.62820167340394   11.32600220555783
H         8.35551764323074    6.16787540467932   11.33686527497984
H         6.47443841646265    4.80455141488017   10.48669400470565
H         4.44132843836507    5.90426945037667    9.64722828788081

