33
CSD_code = MALWII | q = 0 | S = 0 | Stoichiometry = C14H14N2O2Pt | MND = 4
C         1.63702624377730   13.40733400159060   20.52670148667152
C         2.76346393509691   13.39049809919846   21.34448743891066
H         3.11035018926166   12.46359913148814   21.78429612751260
C         3.47378134417139   14.54812728728176   21.62487260506350
H         4.34476812749473   14.50231678168854   22.26335332401215
C         3.07513719548270   15.76361066975861   21.09288586713650
H         3.63287991265771   16.66136536736166   21.31475910589040
C         1.96039886939311   15.82294359511695   20.27945244316968
H         1.65006505846829   16.77270547495477   19.86949974317523
C         1.24608107593788   14.66147182139248   19.99740597272315
C         0.05364588362823   14.61126159431416   19.16046654446905
C        -0.54280706009435   15.68664565881201   18.50602318702919
H        -0.11528822590798   16.67230323300604   18.59284819364740
C        -1.68041404840974   15.48221917823925   17.74714878394452
H        -2.15030411917102   16.30830170599188   17.23515035256922
C        -2.20774689127508   14.20143056341601   17.65402186717206
H        -3.09388131848975   14.00363970160233   17.07337181058489
C        -1.57205873510351   13.17064015533140   18.32283674393736
H        -1.94198766021993   12.15355723445910   18.28148459548174
C        -0.46770668783937    9.19932655514238   19.57688191437433
C         1.02112594773273    9.14155774616096   20.09375413344110
H         1.18652895194440    8.20741317034373   20.64296323440974
H         1.66899050971923    9.15426875138418   19.21099558183902
C         0.68590900996739   10.18993897746473   22.25160110616599
H        -0.39422058361357   10.08052779097350   22.13629133547873
H         0.89292633328279   11.08041119322034   22.84829560816708
H         1.06398842439428    9.30653144633039   22.77776284809552
N        -0.47668078246723   13.36994669322841   19.05140364275751
N         1.30640683703474   10.32216094976387   20.92693161248769
O        -0.90090399795214   10.37195009419842   19.37499394458224
O        -1.06288610485627    8.15711613988001   19.40001800635886
Pt        0.42963340350225   11.91199888371214   19.97436424601487
H         2.31857896245192   10.39518035319387   21.05777659272677

