25
CSD_code = MALWOL | q = 0 | S = 0 | Stoichiometry = C6H12MoN2OS3 | MND = 5
Mo        7.10942114078344    3.78566412159505    3.69273195901791
S         9.38369502958986    3.40675735724298    3.99305129623346
C         9.39119536953701    1.61123688032171    4.36618246860667
H         9.71204872362115    1.08163052141903    3.46770372548885
H        10.14127315433067    1.45112609050189    5.14127927502668
C         8.02698661204937    1.17185784798814    4.86919878172074
H         7.99740650444132    0.07365724447239    4.96425510391819
H         7.89253240807400    1.61392263786243    5.86255508796825
S         5.73485475942788    3.96284663811088    5.55949667480226
C         5.40968375626326    2.19472833502848    5.92199084974047
H         6.03752998358979    1.90299753018273    6.76537757452060
H         4.36690022417408    2.12096570912728    6.23219223326658
C         5.63962075932005    1.35117547609853    4.67990576048947
H         5.57461107072022    0.28053115552378    4.93581832160222
H         4.83761726491639    1.59239963023656    3.97359849972669
S         6.15220769369836    3.33060859095972    1.62398937065830
C         5.99821462135038    1.50506549324828    1.70456355154748
H         4.95631005457337    1.26397302554621    1.92106211090304
H         6.23670737063724    1.12220146929088    0.71183432119853
C         6.97164902508963    0.93927763240399    2.72413218741906
H         6.78333979687733   -0.13796701480046    2.86568841813672
H         7.97914462267751    1.06848421978649    2.31361798844689
N         6.92151859728328    1.63704193149022    4.01791640757129
N         7.25936408441165    5.50007205041171    3.43338976880246
O         7.35906737256282    6.64384542595115    3.26086826318719

