67
CSD_code = MALXUU | q = 0 | S = 0 | Stoichiometry = C23H32O9RuSi2 | MND = 7
Ru        7.10543399655078   17.78605432312220    3.99322647615486
Si        4.79856612447077   18.79976255215652    6.73067118446314
Si        5.11255386598033   14.95892539773024    2.35819757690958
C         5.00229830879137   20.34066193766931    3.57271631183067
C         5.21731875480649   18.87412269654528    3.73226046000821
C         7.99618241499012   19.37957470518028    4.44323314277457
O         4.42243033161804   15.85423235234233    5.30608990487679
C         4.90295490317116   16.73668540852266    4.61754069868238
C         5.39212795417109   16.62025476373002    3.22586347279873
C         5.37374248892018   17.93711386078310    2.65626461042225
C         5.15585167329494   18.16137375988734    4.97612546980346
C         5.19048992881584   18.22178513412749    1.18679907634856
H         5.35826216175011   19.28713101747277    0.98308299216185
H         5.88518030518280   17.63205430734422    0.58477737361103
C         7.67343335789216   16.58044817201650    5.34583162088350
C         8.28249794526369   17.33631324251364    2.60963356932311
C         4.52430947527508   17.31098736485465    7.88844461208789
H         4.35023957986910   17.65063451873446    8.90537956445742
H         5.38655712066724   16.65137969619731    7.90193671664962
H         3.67446332963025   16.71142839919779    7.58206936690338
O         8.49209208639779   20.37472723689809    4.70832758457468
O         8.01506440508065   15.87867586785339    6.17980852098608
C         3.22680498963634   14.69052440877632    2.31863026393292
H         2.98404792195523   13.70808005358563    1.92625011422471
H         2.73988051164212   15.43169331922851    1.69126914589524
H         2.81148151419316   14.76414781594209    3.31891030413507
O         2.94143265234507   20.15320594680834    2.21020415307097
O         5.72399274468803   20.94520822742943    2.52612252875422
O         5.41981980001635   21.04972542486871    4.73946349320206
O         3.89901512290830   17.82196502497399    0.78555734644987
H         3.26611537350010   18.37976836518038    1.26039169028179
C         5.35712839350856   22.28050826386275    2.81790234333388
H         5.82853137355529   22.97475035224186    2.13118950077591
O         3.31238862976081   22.26355145018088    1.47173695149215
C         3.81362757890429   22.24584476108931    2.77792113293245
H         3.36533714652422   23.04030213568369    3.38590932420406
C         5.75128115163040   22.36015871175627    4.30086381182911
H         6.82553236829974   22.52351797977279    4.42891152235198
H         5.18541240948546   23.10323094424966    4.86642103994660
C         3.54043145712552   20.81381918777329    3.29275162977680
H         2.92624684045124   20.75275651481576    4.19440931334647
C         2.45698222400349   21.14574125961190    1.30269902871548
C         6.31446576829383   19.74149637329665    7.41549732088260
H         6.45514977944870   20.69330287111707    6.91698520168195
H         7.22750041437429   19.16120028812979    7.29346790758488
H         6.19074470703483   19.93778465996966    8.47579966810650
C         1.01134150913980   21.51332367832806    1.65674235830447
H         0.95177555252611   21.86447032762040    2.68428805217133
H         0.37686961655951   20.63918878551544    1.54472055792241
H         0.66850013826512   22.30173470943777    0.99367605062847
C         6.01938373487240   13.66379879183193    3.42550216334903
H         5.65745821076863   13.70069005836714    4.44820658327067
H         7.09294397594497   13.84061688904591    3.44633598721649
H         5.85758596516656   12.65814120024227    3.05090649995474
C         3.22356144487936   19.88044940947440    6.79337461093964
H         2.41358046882040   19.45473912877734    6.20826842871880
H         3.41820053628654   20.88677288005411    6.43965620553602
H         2.87888787983903   19.95515873565196    7.81957113346025
C         2.56979355432775   20.64784610333032   -0.13173286180880
H         2.25087542358987   21.43963238352201   -0.80227884664259
H         1.94420558993043   19.77233848599213   -0.27294423781947
H         3.60152136908177   20.39259039102373   -0.35410755220764
O         8.92138481571389   16.99483113035454    1.72267638050779
C         5.82928264370036   14.90796474946640    0.59121766319090
H         6.85465668128638   15.26343663286453    0.54557601282697
H         5.23130358643569   15.49735226692407   -0.09511050311960
H         5.82528591698837   13.88511220694860    0.22951026998433

