38
CSD_code = MALXIH | q = 0 | S = 0 | Stoichiometry = C17H13ClI2N4Pt | MND = 6
Pt       -0.88690914809161    1.68542816528395    3.10833924418563
I        -2.49914498711909    1.97086893725727    0.98502459356572
I         0.81034734922876    1.38217206153490    5.15646109895390
Cl       -2.66122220145679    2.30273654701400    4.57470697983157
N        -1.24842447567917   -0.35789917306537    3.12467012133121
N         0.59490006051426   -0.18475996189336    1.66894960295678
N         0.51780864553607    1.06724035557811    1.90133038659811
N        -0.07484836587507    3.50257727637259    2.68003479378320
C        -2.13942836163578   -1.08882639809652    3.77254668698254
H        -2.83920162161228   -0.54199071324861    4.39336056690050
C        -2.17508581720667   -2.46667434840718    3.65916274259392
H        -2.91865051997255   -3.03014667967697    4.19719461066787
C        -1.23999350989773   -3.09448510346397    2.84155718213582
H        -1.24503475305288   -4.16832011263432    2.73511607717732
C        -0.30544482192440   -2.33712392075255    2.16951347247469
H         0.44266879917086   -2.77331944917868    1.52943612844694
C        -0.31952913429160   -0.94508580736611    2.32108340066843
C         1.28550137178796    2.03301171954727    1.39703970311825
C         2.36123303245775    1.81906291473779    0.50548298569343
H         2.58593676023576    0.80342263372420    0.22062715285591
C         3.07123715250539    2.88596152707701    0.04591764749533
H         3.89532378490049    2.74063602407170   -0.63408501167469
C         2.74498682470963    4.19445481245185    0.46695868604892
H         3.33903443102088    5.01989481864617    0.10475454622693
C         1.71114508608160    4.43926402424743    1.32045382731454
H         1.48464446543540    5.44117192642863    1.65056039810900
C         0.92605963787335    3.36560211817502    1.81861930761679
C        -0.67409529026282    4.71098576421190    3.01986102486271
C        -1.13809414648783    5.57980392841087    2.02765538736273
H        -1.00853681122709    5.31659567855046    0.98756294416387
C        -1.79714975348848    6.73820445181221    2.38593860649431
H        -2.16595917378087    7.39853084765823    1.61557060892350
C        -2.00132373372876    7.04299558042498    3.72285514357099
H        -2.52664555952484    7.94559932243715    3.99571358724608
C        -1.54319469215865    6.18212343590336    4.70766802267160
H        -1.70555070662212    6.41358748735688    5.74923759347069
C        -0.88487549246727    5.01783394873219    4.36549411741096
H        -0.52918432389456    4.34466536013710    5.13102603176385

