38
CSD_code = MALXED | q = 0 | S = 0 | Stoichiometry = C17H13Br3N4Pt | MND = 6
Pt        8.85270035550885    3.08308305217999    2.25961359530931
Br       10.93833208782497    1.81547190246986    2.97221114683684
Br        8.44656531427215    3.88429878304640    4.57979158362024
Br        6.79716684004573    4.26208529310116    1.35214378346942
N        10.02342543151867    4.70225235504498    1.63922570654810
N         9.99686480278226    3.33169635936854   -0.27220540806224
N         9.27714283512234    2.54698662427892    0.42415278869289
N         7.85656605556439    1.30687754723520    2.24618358607944
C        10.38928037946850    5.81981718529536    2.24627124500183
H        10.07110151568875    5.93461992043225    3.27509197539066
C        11.13965122725817    6.79022588356616    1.60758533905581
H        11.42242647257495    7.68254787835453    2.13996147847095
C        11.51427059287942    6.58382169032379    0.28357391248954
H        12.09785898418270    7.32533408879048   -0.23983152967292
C        11.13210920516781    5.42507732460867   -0.35608666672301
H        11.38951408765535    5.21703007475370   -1.38084920613237
C        10.37604323374282    4.47653709683751    0.34370314261517
C         8.78798977694020    1.36268559472130    0.06196283711834
C         8.98337534523727    0.76968587258405   -1.20652559088616
H         9.55944014363350    1.31567141732875   -1.93660357715147
C         8.44352941498967   -0.45360672181552   -1.46218404116211
H         8.58284441602755   -0.92139825921205   -2.42368749687553
C         7.68301716651610   -1.11867910696949   -0.47427650330164
H         7.24967394042866   -2.07863988981575   -0.71124779095769
C         7.47774421931427   -0.57959705647882    0.76016817189338
H         6.87989328445414   -1.08751753139848    1.50072601728971
C         8.03200967839617    0.68697473080029    1.08675105983640
C         7.31120051816725    0.71699947729693    3.38333914027379
C         7.84519672611188   -0.46741483933944    3.89782763435830
H         8.67725518837223   -0.93696178373295    3.39319995871364
C         7.33384097445679   -0.99545861197974    5.06598668603908
H         7.75767996211226   -1.90340525650535    5.46761650930999
C         6.29741418411179   -0.35643883050897    5.72891858052646
H         5.91049491111190   -0.76956168625811    6.64779352284490
C         5.76824759318301    0.81920271635277    5.22040124595613
H         4.96774060096028    1.32406680483824    5.73827512928041
C         6.26986032304271    1.36133795430178    4.05424406932435
H         5.86273221117493    2.27829194610326    3.65377796457945

