97
CSD_code = MALXAY | q = 0 | S = 0 | Stoichiometry = C54H39O3Y | MND = 10
Y         3.70676634205778    1.74515684822251    1.68160934725390
O         2.49850823818315    3.30383996779736    1.69487404314456
C         1.64564653768942    3.81297140254203    2.56025184140859
C         1.36076251419746    3.17211990477432    3.79124965756368
C         0.49233229601999    3.74785708760484    4.70693351564959
C        -0.15642730736082    4.93362107725434    4.41475645952395
C         0.07772084531637    5.55397802365441    3.19951205923698
C         0.97301789072212    5.02765197673980    2.28109210719297
C         2.02709612903447    1.88426182926978    4.07942722633009
C         2.87631120341085    1.73164424510966    5.17470386005339
C         3.50626315011128    0.52308330977423    5.41707031496858
C         3.30853459515109   -0.55589869072131    4.56989197680974
C         2.44306311655584   -0.44058601440524    3.49082993002546
C         1.79959353423847    0.77398033885955    3.24091346740517
C         1.21621729046804    5.71106288574849    0.99913695568808
C         0.14925772762248    6.09583212780305    0.19089064671994
C         0.37514909964522    6.71656300443541   -1.02400492664165
C         1.66960042991244    6.96899969131804   -1.44622586737060
C         2.73698333906698    6.60180822588408   -0.64336543079263
C         2.51349842527576    5.97488563979825    0.56901449381286
O         5.15751562631640    2.05342804780126    3.01339833353471
C         6.45077990933603    1.85293528364817    2.87684241216618
C         7.07106810283958    1.79092833018675    1.59934219541835
C         8.42273561361281    1.48292649514586    1.48465373755894
C         9.19953732297254    1.26218880149785    2.60454715796140
C         8.61929156850752    1.35577867429686    3.85842093695753
C         7.27283275539124    1.64957343448385    4.01438043041173
C         6.26933639745332    2.03111008522285    0.38656323164627
C         5.39981719594640    3.14092580938247    0.30610214277347
C         4.66617747760559    3.37699371445256   -0.85896108596316
C         4.80211806563880    2.53218359051505   -1.94914576909928
C         5.65640347705284    1.44205831255260   -1.87897383973109
C         6.37633524618757    1.19008655785914   -0.72677196655664
C         6.71775064865951    1.78122959163020    5.37038888034023
C         6.99546330383537    0.82539099207530    6.34472241225850
C         6.52365830864698    0.97836219004828    7.63558444294359
C         5.77504388353984    2.09351421377603    7.97545129013518
C         5.49329806816139    3.04863266661737    7.01260026026330
C         5.95471528008428    2.89211305069237    5.71845045798240
O         3.80014947099318    0.12749637758532    0.67100146823778
C         3.39348224677352   -0.94593056468758    0.02883494928311
C         3.79121076998139   -2.23797487159291    0.45792027117004
C         3.37939027076735   -3.35613167009118   -0.25507194187871
C         2.59039935140863   -3.23936057325474   -1.38502676462756
C         2.19244527423453   -1.98549712188724   -1.81002083554557
C         2.56971633608262   -0.84094644584644   -1.12016903609750
C         4.61444983711894   -2.39902962063670    1.66839405969024
C         5.69062746738847   -1.55423866041348    1.93646007027594
C         6.45681639061668   -1.72315168750145    3.07565093738802
C         6.16250944979631   -2.73815768214636    3.97018918207097
C         5.09674465651891   -3.58660830624741    3.71560789045475
C         4.32929503259264   -3.41771297294658    2.57828155856403
C         2.13197174385043    0.48213477753875   -1.59342646124743
C         1.62710800176048    1.43574221671500   -0.70707247386282
C         1.21792896889869    2.68041345317154   -1.15737413422553
C         1.29518168056799    2.99098557825724   -2.50472429029063
C         1.76640207941273    2.04318819348415   -3.39917908410628
C         2.18621790730037    0.80471076680911   -2.94889510027365
H         0.31200440615931    3.24041890028229    5.64426369146260
H        -0.84116194942817    5.36936396095595    5.12592289548777
H        -0.42345193417399    6.48179744907648    2.96198780968960
H         3.03065606161218    2.56743917755695    5.84107755332304
H         4.15245289836181    0.42198799194242    6.27552305191569
H         3.80435195184495   -1.49506610210965    4.76237535991853
H         2.21821013314362   -1.30800098060474    2.88118633155506
H         0.99000193015454    0.82334486276061    2.51137504319382
H        -0.86159433779098    5.89032991485178    0.51426462107419
H        -0.46179115344744    7.00372504134040   -1.64465356835799
H         1.84661051319990    7.45417616540337   -2.39523956703229
H         3.74814380015207    6.81381949281731   -0.96362814771088
H         3.34368876581511    5.69613085373644    1.20228737035782
H         8.86789396748967    1.44774239322147    0.50032227873570
H        10.24957130865222    1.03434170785163    2.50458004204233
H         9.22507465010262    1.21693122041730    4.74283413796879
H         5.42981481855577    3.89895557953368    1.09199474825556
H         4.03144970466826    4.25099435435960   -0.92958996379304
H         4.25484966991496    2.73422473387958   -2.85648398612860
H         5.76408976986207    0.78662932177293   -2.73075000578736
H         7.04325107521503    0.33997075071541   -0.68442752354808
H         7.57467498266449   -0.04816867396544    6.08193511052381
H         6.74252885354431    0.22732259626020    8.38161166606945
H         5.41408402731330    2.21729264345321    8.98625421350892
H         4.91674405086006    3.92449540689305    7.27608793732608
H         5.73548970181821    3.63806678920331    4.96902159181061
H         3.70412993114053   -4.33337340828823    0.07285910213280
H         2.28635599011292   -4.12050420767449   -1.92951236443072
H         1.55853865333226   -1.88629172208225   -2.67982035527485
H         5.95125860512405   -0.78252764130992    1.22810787922285
H         7.29198686257818   -1.06311082558743    3.25754089366371
H         6.76045066217501   -2.87097322886347    4.86014826528022
H         4.86086255290050   -4.38235287961329    4.40857251626242
H         3.49008931535120   -4.07468040939973    2.39706079369149
H         1.46489284064642    1.16210368437250    0.33341467871522
H         0.82281531447493    3.40263016230276   -0.45848452246950
H         0.97778359876108    3.96261827518356   -2.85324659360226
H         1.81072579516582    2.27212498912490   -4.45488716026538
H         2.57065162679085    0.07804775056444   -3.65002342873070

