65
CSD_code = MALXOO | q = 0 | S = 0 | Stoichiometry = C26H28O9RuSi | MND = 7
Ru        6.69952738730045    4.26508935846058    4.08275443465952
Si        9.07466224557245    7.27330528765474    3.99556189784529
C         7.50089756166877    3.08824375130117   -2.35537150504680
H         6.68607537285923    3.80899783313317   -2.19251086368820
H         8.42546331700397    3.64236376988940   -2.52989676590144
C         7.67568347707639    2.23210355015315   -1.09114709303362
H         8.38350012934547    1.42022429923077   -1.28825112527000
C         6.33640459077972    1.66625320402476   -0.58150439809777
H         5.54518669101236    1.74853167357063   -1.33884979130207
C         6.03017669329025    2.48560126002681    0.68301401216209
H         5.06882804536225    3.01471480803930    0.65367354348805
C         7.18223197074897    3.50549115065919    0.77765463776889
C         5.90414596273573    0.26524254323778    1.17900563463141
C         4.41226793291902   -0.08697975383886    1.12534347294054
H         3.86864036545870    0.65202243623686    0.54118292363675
H         4.01198747741057   -0.10322690590701    2.13452223302716
H         4.28799669460833   -1.06241076825989    0.66489887356258
C         6.68640660524003   -0.74849182488022    2.00009873692733
H         6.53767059959034   -1.74006761153230    1.58528269019324
H         6.33994115084408   -0.71950482458436    3.02808192488020
H         7.74255104043603   -0.49999297319294    1.97232528190815
C         7.69588670336107    3.81723388462093    2.15749534342812
C         8.45659211558518    3.22500987623233    3.21658855973424
C         9.18852913324660    4.36146823654846    3.88355010684647
C         8.40474657358646    5.57306561060439    3.50679536399224
C         7.67807440685573    5.22866036641000    2.33259658877374
C         7.21114223280442    5.85174348823643    1.05313300381054
H         6.41397515204715    6.59375089007807    1.13873765659429
H         8.06840746610646    6.30005560440345    0.52855121480890
C         9.00232598976365    1.85841040824405    3.27043885625938
C         8.88090920431479    1.09293565399312    4.42583501314272
H         8.31736845582853    1.48617739528212    5.26409967245164
C         9.46732060448720   -0.15643948063674    4.50334887746598
H         9.36761466126717   -0.74122291246060    5.40585413447263
C        10.18304360386412   -0.65571246653348    3.42796703124611
H        10.64278944361077   -1.63100308803753    3.48866744601574
C        10.30830292658111    0.10132103741523    2.27446336557425
H        10.86794614474200   -0.28302171612482    1.43403788136324
C         9.72659229360908    1.35384690587153    2.19286204613498
H         9.83085200248948    1.94986646719863    1.29904250103680
C        10.79070317892889    7.43745970318224    3.18484424612137
H        10.73530968734590    7.40106089675383    2.10004403258631
H        11.43737875304020    6.62871602057210    3.51150513132828
H        11.26324831445548    8.37494505943111    3.46040060533852
C         9.16257439577316    7.33532614192714    5.89591900813024
H         9.61856915142235    8.25722336170487    6.24309091179667
H         9.75998982577269    6.50827335885991    6.26885353114055
H         8.17557693861581    7.26342412107952    6.34787398149777
C         7.86817216153573    8.59419257252513    3.32777747998724
H         6.84638567819213    8.40768848541472    3.64546196526047
H         7.87563275333126    8.63841329852318    2.24307975481051
H         8.14764809332412    9.57566708459421    3.69445216388558
C         7.19726817297309    4.17429554087946    5.91624989959551
C         5.36909305802916    5.59341051338097    4.08722819274220
C         5.48796379749520    2.82531825188716    4.11158206709099
O         7.28988351832297    2.31568203925619   -3.50485343889866
H         6.53203152138363    1.73463572498982   -3.37228902339338
O         8.21348590850491    3.00578550006057   -0.02919974346140
O         6.44750218236102    0.34082103417950   -0.13043707350379
O         6.08143174598857    1.56311211667962    1.73486782468544
O         6.69269076536937    4.75613907454635    0.29475370567038
O        10.17604167240764    4.31163587541334    4.58950612572566
O         7.47146180672774    4.16180293331140    7.02346017208368
O         4.63004137882775    6.46754201341865    4.07082819345819
O         4.77315111445764    1.94217285266119    4.21736686787898

