70
CSD_code = MALYON | q = 0 | S = 0 | Stoichiometry = C34H30LaNP2Se2 | MND = 13
N         4.70083651351478    3.23758759253688    3.58848447949220
La        3.11556280424929    2.16671273669911    5.02902531510980
Se        6.01375792885976    1.76955115900820    5.84067542921810
Se        1.87740038527636    3.88982429853787    2.86138036291980
P         6.23249102947947    2.98237735288622    4.10687295272174
P         3.95170084563155    4.17796103559863    2.48050034216050
C         2.58087293775110    4.48762626918350    6.53782504370296
H         2.78207938693854    5.50783868418735    6.22972621296366
C         1.34875265068587    3.81362770274297    6.38484380468489
H         0.45919784367965    4.22052139224752    5.91938920830077
C         1.43102493445390    2.58741498479984    7.08033679853228
H         0.60531594533485    1.91275250507856    7.26498479150750
C         2.71460181669983    2.50397195635679    7.66853495775017
H         3.04439639426043    1.75145294326319    8.37478656265262
C         3.42315316884291    3.68272716080408    7.33601426168586
H         4.38421358562145    3.97142289101332    7.74717647073513
C         2.53142049055009    0.34837883332309    3.00867387189008
H         2.36226511190113    0.63552971557145    1.97664167072816
C         1.53114650041278    0.25958888794174    4.00623079195440
H         0.47459745582621    0.44917633263959    3.85537698190823
C         2.11693919973082   -0.31755640356313    5.15846579694586
H         1.58371345618596   -0.65385529597253    6.03847110273428
C         3.47505934702297   -0.57948531501153    4.87117088330767
H         4.16673536154026   -1.11392816122663    5.51100687752011
C         3.73037828198840   -0.16561965905506    3.54575634840281
H         4.65253616827178   -0.33655542387624    3.00077117976385
C         7.01477890065308    4.57076448454074    4.51333488613364
C         8.32528821083915    4.88303686438480    4.18199793645489
H         8.92787237128007    4.17540407409027    3.62998037342835
C         8.85131946311271    6.10272224080027    4.57104329961682
H         9.86917153422569    6.35288874448861    4.31079547617211
C         8.08174202339320    6.99544732802448    5.29851050922077
H         8.49938057010871    7.94452879485419    5.59932551658335
C         6.78328148680377    6.66776148819917    5.65657941404636
H         6.19013390301074    7.35436028787483    6.24151558730401
C         6.25153959890067    5.45380437155831    5.26909153866897
H         5.24196474666012    5.17582662543468    5.54959548838724
C         7.20593100995672    2.18733776251996    2.78643867754493
C         7.47784681437018    0.82876279219436    2.86595345426203
H         7.19884169384592    0.28390261006098    3.75889061100449
C         8.10922167225153    0.18949862362782    1.81364448542261
H         8.31882937903255   -0.86772557769417    1.87617562643567
C         8.46680574023968    0.90493792128287    0.68271656478590
H         8.95532067434238    0.40537390225453   -0.14040480000156
C         8.20185792744907    2.26340302632412    0.60485102496812
H         8.48273674932805    2.82249673195631   -0.27549164282437
C         7.56978086694211    2.90508790611632    1.65280041766582
H         7.35835240705396    3.96372687705496    1.59804930145812
C         4.47969343465754    5.91448992082025    2.66184210378434
C         5.66869826566224    6.36590502769926    2.10269721621721
H         6.24233651778128    5.71552716830611    1.45700985195617
C         6.10442656271667    7.65198063692464    2.35955745404149
H         7.02993271430347    8.00090988499014    1.92624335254702
C         5.35573345409848    8.48969266377366    3.17068802932638
H         5.70178961941901    9.49250449029915    3.37096304413199
C         4.16157285082707    8.04664073753382    3.71463905974448
H         3.57089273821979    8.70357547806024    4.33514655550684
C         3.72385765591341    6.75919649990534    3.46256687719591
H         2.78565384398917    6.40218532444114    3.86835755549615
C         4.38758804430692    3.65549043943947    0.79781958317533
C         4.70280290601046    2.32090613925988    0.57791436033779
H         4.74068780542109    1.63773231589614    1.41639511605421
C         4.96669002600334    1.87963060648710   -0.70520673201967
H         5.21821950046014    0.84359660498572   -0.87573657863208
C         4.90250707079167    2.76756124721755   -1.76689411989766
H         5.10908802705042    2.42362468508126   -2.76935573687706
C         4.55895036931234    4.09300847599025   -1.54982454917953
H         4.49252652128084    4.77814160905937   -2.38188340526434
C         4.29276783011965    4.54061258877984   -0.26879514894286
H         4.00913695314051    5.56859539940225   -0.08876013472079

