79
CSD_code = MALYUV | q = 0 | S = 0 | Stoichiometry = C31H40ClCuN2O4 | MND = 2
C        10.43193597213363    3.88189756241136   18.09309919861662
C         9.10561636367763    3.49698329345470   18.30411078050737
C         8.75103487007262    3.03771605733718   19.56371326066532
H         7.74040888524873    2.72224445078160   19.76300207947846
C         9.69216147268278    2.96610865486244   20.58119530754261
C        11.00605370750555    3.35269688234666   20.34609270469438
H        11.71086265967691    3.26811959816531   21.15737719818053
C        11.39851904205558    3.81678588553082   19.10207933994317
C        12.84209423205634    4.16154871406585   18.82188668665598
H        12.89444811187952    4.78332428022991   17.92200809367053
C        13.60691977357975    2.86223432217596   18.54954634894619
H        14.64071215332492    3.08066514459266   18.29235918859931
H        13.14832789864523    2.31451622834877   17.72633073189862
H        13.59382324321488    2.22607902952946   19.43066672910883
C        13.48940377473098    4.94703481214255   19.96245414580011
H        14.46956113086142    5.30248129799581   19.65273130104680
H        13.62104420028927    4.32677939809480   20.84390304175278
H        12.87948365173978    5.80670367551554   20.23146340931925
C         8.07929179522260    3.54046060569317   17.19732084539773
H         8.52879696752549    3.98854477956890   16.30587354958912
C         7.64932600052564    2.11621764259258   16.83856938265935
H         6.94753570366240    2.13396645244704   16.00827788242671
H         7.17264585946528    1.63000247797655   17.68526599266825
H         8.51615719225362    1.52372608427691   16.54651911389383
C         6.87461001866684    4.39591694141723   17.59554297598067
H         6.18860717079026    4.48142191705196   16.75604946002029
H         7.19312569163556    5.39563802209604   17.88437821526078
H         6.33744302362951    3.95256218991904   18.42916931071090
C        11.14927729323243    3.51395282906123   15.78474533362507
C        10.94386540063435    5.64765638197355   16.42968328205323
H        10.72909878401616    6.45336793898579   17.10055578747314
C         9.34644919021942    2.46499903618962   21.93548515430438
C         7.68650525721800    1.50982790688073   23.27687557517119
H         6.65825523880274    1.17700399332865   23.16068862045067
H         7.75589218234140    2.28552013079438   24.04254219719425
H         8.32993790859528    0.67574508065882   23.56421096830375
N        10.82298521819632    4.33519940220683   16.80439124811340
Cl       11.14917246896460   -0.44324175149160   15.78470781059438
Cu       11.14923531270228    1.62256157299795   15.78473490423244
O         8.08294548028098    2.02513377104218   22.01499171416585
O        10.11099209659252    2.45180306053368   22.86870162554154
C        11.86660042355529    3.88190227120642   13.47638435197129
C        13.19293075373550    3.49705521588267   13.26536146868268
C        13.54753073662123    3.03783447177014   12.00574373501071
H        14.55815246935339    2.72228879423648   11.80647690276445
C        12.60640169376162    2.96619668811667   10.98827134858707
C        11.29251445018848    3.35277218880667   11.22337319843665
H        10.58768990405237    3.26813321395808   10.41209664862206
C        10.90001838678697    3.81676810427297   12.46741052775941
C         9.45643197807259    4.16153106570769   12.74758262754799
H         9.40405572994670    4.78327021553178   13.64748477937970
C         8.69162746585046    2.86219445718494   13.01987426566361
H         7.65783821940001    3.08064355412261   13.27707003846692
H         9.15020429533723    2.31442687172000   13.84307063945405
H         8.70470274074899    2.22608481235091   12.13871749335289
C         8.80915331291407    4.94708163855151   11.60703649114303
H         7.82898790317936    5.30251646309308   11.91674632278193
H         8.67752985530900    4.32683564696673   10.72558015705300
H         9.41908128016930    5.80675520367541   11.33804399035047
C        14.21923090210329    3.54049066581711   14.37217844023557
H        13.76970497261111    3.98855171192327   15.26362876672136
C        14.64921283048252    2.11624556605789   14.73091363256820
H        15.35097223894041    2.13397331565752   15.56123668143234
H        15.12592801255651    1.63006220348905   13.88421608782333
H        13.78237281719427    1.52374128144175   15.02291271285393
C        15.42390880635317    4.39596514637274   13.97398012173949
H        16.10986272125220    4.48149292855741   14.81350846038280
H        15.10539769718928    5.39567872076238   13.68511290001678
H        15.96113180754129    3.95260334194100   13.14039285781744
C        11.35464748762087    5.64765682751623   15.13979268540428
H        11.56939528962916    6.45336574666435   14.46891146122639
C        12.95197417706444    2.46469493715844    9.63408842822920
C        14.61200330238155    1.50978851677158    8.29260334729002
H        15.64021109688023    1.17683684577625    8.40880810870686
H        14.54272271389549    2.28551941688091    7.52696289062950
H        13.96848733718359    0.67578671693081    8.00523178317360
N        11.47554961403738    4.33519790811499   14.76509230254675
O        14.21554293611659    2.02502311083038    9.55451602426936
O        12.18752924142737    2.45182846040593    8.70078682367051

