50
CSD_code = MAMDEL | q = 1 | S = 0 | Stoichiometry = C21H21ClN4PPdS(1+) | MND = 4
Pd        4.40782220026120   -0.28148801257877    7.12190325181896
Cl        2.74894400400552   -1.68259443916113    6.60207313275491
S         6.30416318180465    1.03675825792898    7.62329983915240
N         7.18064376650098   -1.41997110834651    6.80421141628690
N         5.90057395769687   -1.91391014414962    6.59414655887670
H         5.69011019790752   -2.73102291903060    7.18056612422031
H         5.72835169433977   -2.16452976483566    5.61207392235778
N         9.35488006575503   -1.22347450405205    6.94359426635222
N         8.76878817983974   -0.06826636362189    7.32057168766505
H         9.32689802832532    0.72039965437938    7.61015558159624
C         7.42595721203848   -0.14154950157167    7.25164921721872
C         8.40752067734575   -2.04075774562682    6.63147093759910
C         8.55613231381771   -3.42896205999019    6.16058113972913
H         9.61315673589768   -3.67267121367663    6.12098492588968
H         8.12816805519720   -3.54887947474096    5.16521354204369
H         8.05781207650271   -4.12358189968529    6.83687783296341
P         2.75455896734043    1.15185937902527    7.52010839846168
C         1.77335125372134    1.25091125889287    6.00703143636586
C         2.53372299524086    1.20031322526034    4.83642876154019
H         3.62395820003587    1.08903592739128    4.91320320148709
C         1.90894307191300    1.27327146047655    3.60774116475299
H         2.48931460083523    1.23521738813772    2.69843875647301
C         0.52622380218680    1.38393419377971    3.54526985955292
H         0.03618067480896    1.43300349526404    2.58528026220879
C        -0.22717191135436    1.41475268472294    4.70638886170129
H        -1.30262690326395    1.48362277479718    4.65019435009213
C         0.39112582148514    1.34936155180122    5.94525757457540
H        -0.19775002469866    1.35365427263064    6.84988039349689
C         1.87198697383688    0.63967941826261    9.00986198985900
C         0.76147059295367    1.33610496325595    9.47789859318698
H         0.39040673799285    2.19260887099975    8.93266970889413
C         0.15130240017111    0.93229933405929   10.65195703389376
H        -0.71812745231930    1.45971718753995   11.01346745020753
C         0.65779025118256   -0.14189375914134   11.36694156413756
H         0.17626705410440   -0.45258053470218   12.28115245183926
C         1.78662937713138   -0.81192156520623   10.92038366289251
H         2.18603304505320   -1.63604300383983   11.49151658250231
C         2.39797589788790   -0.42219298765624    9.74304680341194
H         3.29240767601509   -0.94125457424115    9.37458554909765
C         3.30629212530401    2.83963471552808    7.88452381842616
C         3.04773643627999    3.91387168143511    7.04093994228000
H         2.48759389168914    3.76488390114009    6.12861752888248
C         3.50725410411324    5.17416962552290    7.38365770889079
H         3.30498174505707    6.01171215209084    6.73369252916191
C         4.22439160052638    5.36146097607188    8.55386338770891
H         4.58205999781620    6.34589810679889    8.81342475327508
C         4.48646245519939    4.28811623219976    9.39345809919724
H         5.04626536794592    4.43727778556919   10.30399358251388
C         4.03046351368818    3.02789824886028    9.06113334779677
H         4.22850331287952    2.17721685205488    9.70351751468938

