60
CSD_code = MAMFOX | q = 1 | S = 0 | Stoichiometry = C21H33ClN2PRuS(1+) | MND = 9
Ru        2.75326372651789    3.04189992723297    3.80798889371205
Cl        1.56346259293289    3.92417936971204    2.00741016120049
S         4.71230330658841    4.25425348585824    2.98604285357735
P         4.79395285717425    5.72071372755028    4.32375430975260
N         1.93231203013805    4.53741302669986    4.91088496380159
N         3.96457557323942    5.34746887399967    5.76571350330437
H         4.36731848737911    5.81162261452604    6.57471346507428
C         3.00511581160430    0.93623735502054    2.93183072729593
C         1.69902728437415    1.03354808195086    3.47623508851670
H         0.84500879288176    0.78437587333236    2.85479360826797
C         1.49648887799884    1.39442350590516    4.81627301617445
H         0.49292795829281    1.39265140091257    5.23030444827315
C         2.60170793581729    1.64640720940183    5.67931068834363
C         3.89750242224473    1.54531610420813    5.15121612511978
H         4.75693884332165    1.65725561445557    5.80208550284344
C         4.08986280593566    1.21405167190949    3.78823401766863
H         5.10309879530583    1.09524270468232    3.41938941011661
C         3.21960282081816    0.47804661499156    1.51006390196243
H         2.24429393817912    0.44883662439412    1.01287631201072
C         3.80841340011571   -0.93652531433417    1.50857375950073
H         3.91130795737544   -1.28756350561567    0.48578645919730
H         3.16007296012774   -1.62611273979272    2.04524875955361
H         4.79072897466889   -0.94954912591319    1.97553340029758
C         4.11362877184117    1.45123541419286    0.73856439073520
H         3.72010669612286    2.46525717823037    0.81266550101959
H         4.14067210122822    1.17139415095746   -0.31054763026381
H         5.13255961348134    1.44559014745162    1.11832504098357
C         2.37439775670959    1.89993056317579    7.13839192742242
H         2.25563058538308    0.94410435368016    7.65121505616389
H         1.46858186902229    2.48068896705008    7.30616667595675
H         3.21905704396091    2.41893360848453    7.58669218892976
C         2.57357197723422    5.25544844499191    5.84425310878884
C         1.89641584586966    5.87952380914383    6.89108472777838
H         2.45522719381447    6.41792742591780    7.64136448379204
C         0.51762039849414    5.81391719479843    6.94476622098733
H        -0.02263855878713    6.29136258081128    7.74590809583564
C        -0.14885112347997    5.14569809108672    5.92512424806533
H        -1.22446879609050    5.10178529929777    5.89632479731628
C         0.59052227866627    4.52554588098267    4.94031847290142
H         0.10650301030794    4.02044411386271    4.11187935810029
C         6.52354243721782    5.92468368729460    4.94468761203339
H         6.52325601306338    6.68984556929445    5.72824757455989
C         6.98871491517941    4.59121617891070    5.51831862448900
H         6.99275575913973    3.83378847604568    4.73680295324723
H         6.34253011084204    4.25615270503662    6.32810847830744
H         8.00019385996973    4.68796727165086    5.90576799158655
C         7.39640339403257    6.36581361426313    3.77638970034124
H         8.44116587850995    6.38242757914970    4.07815171017628
H         7.12974841348164    7.36205489371977    3.43061789219732
H         7.29132781404442    5.66799701396021    2.94669488581231
C         4.15059772710407    7.32758070612058    3.63353079300826
H         4.77379199151040    7.48876310967315    2.74633307722615
C         2.70105040377844    7.16479553252251    3.18792159574980
H         2.02258488806060    7.19171955805588    4.03963238149235
H         2.55064028719049    6.22534004272877    2.64908885002507
H         2.42970255375209    7.97891020260281    2.52030859251768
C         4.32506960045073    8.47675490145630    4.61729793516296
H         3.97152028293507    9.39685590729093    4.15729646794675
H         5.36740802906339    8.62087485330059    4.89335019008466
H         3.73807082386396    8.31107787171911    5.51969265395696

