83
CSD_code = MAMFAH | q = 0 | S = 0 | Stoichiometry = C43H35CuOP2S | MND = 3
Cu        6.61741141793550    9.23898107720058    3.38653977683093
P         6.37922947598016    6.98107979172849    3.43213266953067
P         5.88599215591261   10.52265469216399    5.00555161094332
S         9.22972259259585    8.88631476603462    3.49537116032450
O         7.50334393925569    9.49065062031264    1.69169145405216
C         8.68464408306521    9.11456422549380    1.91899955464327
C         9.58989974891326    8.83359129152854    0.79581401010194
C         9.15951543868653    9.10118930141626   -0.50307314068962
H         8.18631511061524    9.54748195941001   -0.64567050279127
C         9.96694678590383    8.79538531763120   -1.57981814636594
H         9.62842224174087    9.00541036786064   -2.58464037922207
C        11.20951483782073    8.21697808184341   -1.37388607403204
H        11.83898264328930    7.97373355142834   -2.21806342123926
C        11.64419142336945    7.95217536814524   -0.08532177296645
H        12.61331529040551    7.50239105645830    0.07629401202950
C        10.84120103385837    8.25812391589747    0.99542093997286
H        11.16903680232800    8.05118348999947    2.00340126636491
C         6.64788712588040    6.09131481036841    4.99721505154489
C         5.82540862945513    5.07213336122164    5.46210742776880
H         4.97963566690513    4.74421414564550    4.87464116175074
C         6.09221629818949    4.47765316763007    6.68259006859068
H         5.45465888333169    3.68123099915722    7.03963657827953
C         7.16930794054382    4.89672900373152    7.44558076122764
H         7.37219718081687    4.42577323003698    8.39640343853945
C         7.98097283387713    5.92425781300905    6.99244929334684
H         8.81591915617233    6.26067130806950    7.58903005995153
C         7.49494405431057    6.15886284896201    2.25920332086862
C         7.24946903880982    6.38313214624764    0.90519537393307
H         6.36544705723858    6.93536360256900    0.61121742826475
C         8.13775887959082    5.92140406798311   -0.04597708462342
H         7.94755282288281    6.10093312042306   -1.09398016969496
C         9.28395395197989    5.24914334279840    0.34660675592801
H         9.98715050149906    4.90403199992246   -0.39680191470356
C         9.53491546892806    5.03387326281454    1.69155104707931
H        10.43369782481901    4.51834037454106    1.99727884814425
C         8.64807918663244    5.48877222629998    2.65049156454812
H         8.85488719827091    5.33856169016672    3.70081165318763
C         4.74587173175270    6.38751174102925    2.88282451167275
C         3.67865503963485    7.26972095410762    3.01549582084932
H         3.86403531260067    8.25920495746667    3.41964315469058
C         2.40765504930707    6.89406141261837    2.62093219187199
H         1.58311490768013    7.58415660990492    2.72682909875419
C         2.19906456105014    5.63469370010224    2.08269857870935
H         1.20867802904171    5.33853553673299    1.76955267514197
C         3.26146218958544    4.75592545895517    1.93613796280123
H         3.09640776396700    3.77700442698644    1.50960237111161
C         4.53318086610417    5.12703275968658    2.33275774125272
H         5.36527299413620    4.44619610803059    2.21339973722856
C         4.14334570301793   11.01706390936147    4.86205360346224
C         3.65045814709820   11.19660460466806    3.57283560263218
H         4.31485657643794   11.03000190274127    2.73310910691252
C         2.33447810649827   11.57382279813606    3.37733325835293
H         1.95409515597981   11.71195759645118    2.37594033216357
C         1.50469564001794   11.76976958496558    4.46962336541833
H         0.47601631636472   12.06313378703740    4.32028220261105
C         1.99036517867989   11.58653401104991    5.75509519842728
H         1.34001588757658   11.73901287831655    6.60428503925881
C         3.30563356733531   11.20939295814857    5.95638901134547
H         3.68520809102141   11.05867826684428    6.95770238601083
C         5.90253863979049    9.56031640085651    6.54868395989445
C         6.83435957952653    9.77268961984476    7.55729066692424
H         7.54182842349791   10.58553189806783    7.47553227709113
C         6.85299267328861    8.94113170421015    8.66343660400461
H         7.57740914007095    9.11028060324887    9.44673252677701
C         5.94997933595701    7.89734903803076    8.76918963351126
H         5.96613373768202    7.25328322278720    9.63574961975501
C         5.02846752378534    7.67322741394675    7.75817056219357
H         4.33015392301820    6.85277581873816    7.83318851812462
C         5.01248682664688    8.49166299423120    6.64698180263422
H         4.30628758272654    8.31155227686336    5.84613927369180
C         6.75486828607109   12.05490972684957    5.45710484520216
C         6.12038434209181   13.19862701230544    5.92771117868023
H         5.04619148108702   13.21487828207665    6.04751218329906
C         6.87276405585167   14.31824597446288    6.23595848612956
H         6.38194555776227   15.20873098958851    6.60153772139817
C         8.24898195017934   14.30251396590234    6.07575250838774
H         8.82862774111304   15.18123289654248    6.31797740708392
C         8.88144236872765   13.16599928275354    5.59638628706424
H         9.95294666589417   13.15626326546562    5.46186308005775
C         7.71798634706667    6.52614436384907    5.77730705824145
H         8.33699058791371    7.33897963157852    5.42006902114884
C         8.13734995699375   12.04526480565365    5.27952675582075
H         8.61457173888736   11.15490745302231    4.88708138698101

