61
CSD_code = MAMFIR | q = 1 | S = 0 | Stoichiometry = C27H29ClN2PRu(1+) | MND = 9
Ru        5.14605932517673    3.96740261524915    3.38794347064835
Cl        5.21709388246455    5.69797397895070    4.98112410663279
P         2.90001754177056    4.04509486610414    3.59720109290657
N         4.97035585014465    2.89127453336906    5.12701823727142
N         2.67808014185070    3.21010460780762    5.06234637915622
H         1.79753647567437    3.24273491353322    5.56555214414596
C         5.65708621474269    2.57065805093370    1.62949619133919
C         6.79840553565377    2.66924579197115    2.45665715180559
H         7.28042723408838    1.76114289617977    2.80298306179354
C         7.39259335246813    3.91185562688555    2.74892028615773
H         8.31851084324705    3.94841768622767    3.31275536882780
C         6.86258136895490    5.11176674214336    2.22218699482727
C         5.69949700375903    5.02996874155738    1.42579853912679
H         5.31008177051979    5.92619166693417    0.95381176392789
C         5.10787948086138    3.77857778236620    1.13881236293800
H         4.26850746874690    3.73393191756571    0.45020365393150
C         5.99858351810924    0.56530577296849    0.19901239380118
H         5.57026847990422   -0.38229983112945   -0.11512916518925
H         6.98163562863115    0.37400592620399    0.62314138266806
H         6.11818669496799    1.19675543678220   -0.67828443731191
C         5.08131340250638    1.23490612823376    1.22724111674926
H         4.10559066870238    1.41425633257870    0.76037620549078
C         4.86803206212396    0.33161472295489    2.44414057054579
H         4.34913295689479    0.88037507551380    3.23232842749193
H         5.81332743117838   -0.03474839761144    2.83683150499388
H         4.26575627955787   -0.52822726238567    2.16513991138834
C         7.51514174613099    6.42333836258260    2.50458225045179
H         8.59379133938425    6.31164883447357    2.59061589515272
H         7.14291928424514    6.81316654699196    3.45625665463137
H         7.28614105999010    7.15152157323983    1.73014828855646
C         1.93233891628362    5.56396537170536    3.79344235481382
C         2.49240837900645    6.80937089860725    3.53943819797537
H         3.53146114892557    6.87585877952736    3.24847581191224
C         1.72010413117279    7.94881201788690    3.68455417376568
H         2.15318235430992    8.91896845097971    3.49559783888742
C         0.39552757803818    7.84431647149597    4.07594136638840
H        -0.20319445337118    8.73433698695167    4.19353472985815
C        -0.16842234261164    6.59909499162840    4.31305331320310
H        -1.20356055391480    6.52125202187600    4.60877245393131
C         0.59347132364302    5.45597322287563    4.16655594376869
H         0.15297947371489    4.47991000507921    4.32699112927662
C         1.89395017016794    3.09785130165698    2.42441031836691
C         1.49938024131087    3.73215215973572    1.24855964866560
H         1.74501766366193    4.77656493807362    1.10369553670914
C         0.78745832697250    3.03394170910383    0.29151645127155
H         0.47646062075750    3.52694091090410   -0.61688277082353
C         0.47018517958377    1.70024925180748    0.50228048364526
H        -0.08677776982273    1.15577500008795   -0.24440079057674
C         0.86257706225257    1.06669202614776    1.67071022541582
H         0.60913388156879    0.03029355616448    1.83414829910200
C         1.57924217271579    1.75943603055616    2.63046307162307
H         1.88672415879225    1.26808516441243    3.54289789662665
C         3.78304522811700    2.78264940780089    5.75189340018641
C         3.67853708259047    2.22461266993640    7.02950515639031
H         2.71022790083348    2.15756451239102    7.49916579040063
C         4.81620320253345    1.78717703059293    7.67133819722605
H         4.75718029587261    1.36308092460853    8.66063060985564
C         6.04146113063765    1.91805887510263    7.02496146553861
H         6.95744744472546    1.60384317983822    7.49564648752254
C         6.06875665648077    2.47954611516608    5.76797154197921
H         7.00985935259247    2.62416437817332    5.25401986224068

