58
CSD_code = MAMGEO | q = 0 | S = 0 | Stoichiometry = C28H20NO4P2ReS2 | MND = 6
Re        2.85241368107995    8.23141386564094    1.17237679732219
S         2.23690823326071    7.98547258902467    3.74704244650157
S         4.17837568452260   10.52714973917651    1.42944955913220
P         3.65462655183561    9.00115556766243    4.76569653726179
P         3.51032077858804   11.35847460759217    3.14421074128462
N         3.80324345022711   10.59559114403447    4.53795978873156
O         0.11348481879733    9.69145706073096    1.22370331955816
O         3.36114869958762    8.67839093684519   -1.85602747371703
O         5.71122793768700    7.10643257916412    1.61888940098996
O         1.51251385561238    5.44263624915683    0.93389155521750
C         1.12272947435659    9.17389891901312    1.15559045662131
C         4.64854699218061    7.47678692487704    1.46103258474094
C         3.17003888391660    8.48915962082675   -0.74540881045131
C         2.00190246576781    6.47335497465108    0.99691019069742
C         5.27460032123857    8.20941983021709    4.53629106740835
C         5.39212788011826    6.85412571124611    4.82290404229601
H         4.52643070735058    6.30926705472974    5.17785138121462
C         6.60613342173156    6.22353111068304    4.63339310038278
H         6.70543348675951    5.16977108792378    4.84816920569057
C         7.69259028981581    6.94300688962081    4.15768884102178
H         8.63780903739685    6.44472222634221    4.00100366854420
C         7.57119389978429    8.29369549357206    3.87564713940561
H         8.41804961121247    8.84872088233429    3.49997158875114
C         6.35966795126901    8.93360074818202    4.06641009069244
H         6.24457603375398    9.98750012075531    3.84530450075497
C         3.27803885590546    8.82656949499000    6.52445685174491
C         2.20996127144472    8.08150502731109    6.99882093064595
H         1.56488464120394    7.56392244475587    6.30266356978408
C         1.98216054761412    8.01439600982482    8.36272798773330
H         1.15091606897811    7.43691617570329    8.73946564514284
C         2.81661434859220    8.68582426496708    9.24071479355738
H         2.63518053111503    8.63009467937442   10.30399255564059
C         3.88373519702730    9.43092955605507    8.76138130322052
H         4.53173739363550    9.95378008643101    9.44940898467308
C         4.11757794367202    9.50249033615177    7.40166773397380
H         4.93951524365034   10.08107281057917    7.00273060205340
C         4.33286445879141   12.95680542501135    3.31792117546196
C         4.25088639528617   13.57406567251745    4.55994846987527
H         3.73469452537170   13.07025459371105    5.36477941107854
C         4.83943251532128   14.81008310867388    4.74770248869746
H         4.78221814381280   15.29417560271725    5.71158436010410
C         5.50156230692383   15.42795366946862    3.69766511633989
H         5.96008888069015   16.39460187205949    3.84584852609591
C         5.57956500949588   14.80988079800612    2.46063743721971
H         6.09860016630024   15.29218020138603    1.64559079417818
C         4.99345461065809   13.57141884679213    2.26489281874525
H         5.05599753685510   13.07529420936116    1.30658539009430
C         1.73673562765618   11.74298829352127    3.00751432527691
C         1.30706416955432   12.50553709385943    1.92734222920446
H         2.02880758722871   12.84752085486086    1.19660797513806
C        -0.03636296075264   12.79729634805360    1.79438658635194
H        -0.37961140217511   13.38438168609426    0.95543080838804
C        -0.94323518984803   12.32594284640021    2.73217318613916
H        -1.99445948310592   12.54563355916653    2.61874133935085
C        -0.50983102706812   11.57100119437492    3.80951383688923
H        -1.21896065536124   11.20251441122676    4.53595015353942
C         0.83489961897174   11.28115783830436    3.95385641272282
H         1.18987297468757   10.69197505426984    4.79084448087695

