72
CSD_code = MAMKAN | q = 0 | S = 0 | Stoichiometry = C41H28NPPt | MND = 4
Pt        2.66595875018631    2.11574137653996    2.23579854391683
P         1.34640990422968    0.78726345465844    3.66262932393341
N         2.26413103377267    1.12624273278466    0.46328536322507
C         3.65971331781167    3.36863895130922    1.01297848633004
C         3.16122228156196    3.12531253723292    3.84442602840589
C         3.38402392050377    3.61062525517423    4.93478508254079
C         3.60966534775805    4.14840215635946    6.22293845022354
C         2.95482887715630    5.30987448218832    6.63643908559742
H         2.29937467247252    5.82033279643290    5.94493168215516
C         3.14061659235794    5.79432596673074    7.91630848030290
H         2.62877553796068    6.69372723312478    8.23020440095294
C         3.97830052805547    5.13266145923231    8.80011548457119
H         4.11988685928143    5.51400751148441    9.80128171423067
C         4.63435596556912    3.98073243614335    8.39496786560129
H         5.28887336005735    3.46339664873352    9.08276481813555
C         4.45440764776642    3.48862366622506    7.11797257894344
H         4.95744361958981    2.58745660702551    6.79773386537532
C         0.95657410131098   -0.92169852853931    3.51620633649183
C         0.80873573661383   -2.09638875563747    3.25665174193507
C         0.56916488181669   -3.46167714765133    2.99307490727163
C        -0.23412379182279   -3.83146733376516    1.91224614689339
H        -0.67514872030365   -3.06446995532123    1.29133252970219
C        -0.46186175117902   -5.16775483529508    1.64890924614554
H        -1.08413596493711   -5.45110272712877    0.81250362122664
C         0.10458185240010   -6.14430664643665    2.45327620918870
H        -0.07583123822278   -7.18797005507293    2.24313067332114
C         0.90194039182463   -5.78108882936816    3.52742694459860
H         1.34244666234001   -6.54244721076439    4.15428225054725
C         1.13676639615406   -4.44802304434664    3.80139205299951
H         1.75639822091506   -4.15724673301141    4.63708903311520
C        -0.31119707708295    1.51953168832754    3.47704995724457
C        -0.41948978135175    2.72397906718996    2.78957819229841
H         0.48714799078105    3.18868815784506    2.38303724516314
C        -1.65590070394270    3.32504980278275    2.63745586265881
H        -1.73993883752349    4.26199250455455    2.10681998815387
C        -2.78575932427118    2.72302147946717    3.16784097960398
H        -3.75191031306642    3.19142291731459    3.05014020317476
C        -2.68043276244830    1.52055492821249    3.84991143407239
H        -3.56367764671816    1.05457535292787    4.26202283354056
C        -1.44649951459222    0.91678077559077    4.00684239525747
H        -1.35590657831018   -0.02092882178520    4.53808622953933
C         1.60436852244308    0.88237157553498    5.46352604884308
C         2.39664953124630   -0.07321899383772    6.08809491093078
H         2.79262000826209   -0.89822748888498    5.51057456341876
C         2.67873177538726    0.03733795659146    7.43712470550388
H         3.29541966117315   -0.70641817559460    7.92088647207751
C         2.18072192271089    1.10563702621405    8.16439846225898
H         2.41018714303759    1.19758791964361    9.21558042949942
C         1.39745652667543    2.06319959759903    7.54172712951197
H         1.02059868401035    2.90313200066435    8.10634976341895
C         1.11092371379337    1.95709763664468    6.19360570333298
H         0.51416883115958    2.71227452558335    5.70191600958925
C         2.87914189691321    1.71178702571887   -0.59006317539241
C         3.61779482526013    2.90138665806641   -0.32259483276526
C         4.36952615366552    4.53442850542833    1.24349498030134
H         4.43703163099890    4.93835948650482    2.24370695442770
C         5.01596889873338    5.20808898401575    0.20144446797754
H         5.56137322002817    6.11494505062193    0.42335141763475
C         4.97573864468100    4.74039182772694   -1.09036600749854
H         5.48333800035601    5.26705847049345   -1.88617919358741
C         4.26875017515690    3.56611996011053   -1.38371716059885
C         4.17780334654057    3.01627274229504   -2.69488861088710
H         4.68658260759432    3.53116036953974   -3.49801056708603
C         3.47731134407182    1.88253965775614   -2.94513937548987
H         3.41568779899869    1.47593616667141   -3.94451915735399
C         2.79794249115065    1.19361290550819   -1.90031635386409
C         2.04779169393070    0.02515061829044   -2.09341703627149
H         1.96668888388750   -0.40594623441443   -3.08087220683928
C         1.42319197306936   -0.55043060310750   -1.01075265134036
H         0.83458646037881   -1.44832235597261   -1.11773215715453
C         1.55513027836245    0.03312543667001    0.24853302891786
H         1.06394291164359   -0.41692957308288    1.10228517006361

