47
CSD_code = MAMLET | q = 0 | S = 0 | Stoichiometry = C15H26ClN2OOsP | MND = 6
Os        2.01745784385700    7.70948904665052    2.42063118463981
P         2.75278203003350    5.53806504775386    2.83909987227281
O         1.65992192736761    8.66914045482213    5.26209199210621
N         2.10433014764138    7.01084839597758    0.38934320653783
H         1.14648632813502    6.63594941505799    0.32582323782867
N         1.28189865564916    9.31907622574213    1.47694991902276
C         0.56285952857358   10.30620420320252    2.03187128687772
H         0.53471755770654   10.32438385630709    3.11360530923627
C        -0.11779830506258   11.25474311731032    1.29669393842123
H        -0.68532469736946   12.01750050185056    1.80517727313703
C        -0.06726935077214   11.20513129000645   -0.08912531546633
H        -0.59419588799645   11.92389627152385   -0.69602554172078
C         0.68332412087885   10.19501282032993   -0.67245013784046
H         0.75764068232851   10.11233440468003   -1.74645560097361
C         1.34198003998559    9.27979593492786    0.12725798391754
C         2.19668681782156    8.18574651716236   -0.46696288691847
H         1.89438063964945    7.97957815155988   -1.50507705051271
H         3.24315163801215    8.52412402792906   -0.47538651463831
C         3.03914761400301    5.93344742358314    0.09137032161335
H         4.05578220268190    6.33360775758888    0.16517584295448
H         2.89525072454929    5.54441635047056   -0.93031386909501
C         2.83231350861955    4.81549560019262    1.11409876109326
H         3.61459217644829    4.05856347077224    1.03064990584352
H         1.86385620744196    4.33833926089678    0.93271699626940
C         1.61465793234854    4.29183972111417    3.63903050357310
H         0.73156189934678    4.33700404341085    2.98774646014323
C         2.14348713329354    2.86215958845893    3.66938652759390
H         2.94283323783153    2.75740080096077    4.39980670634170
H         2.51377579352353    2.54688641891999    2.69595819720179
H         1.33963021138296    2.18744693599137    3.95968663887074
C         1.17648864692516    4.75588360160509    5.02466146579718
H         0.29422972590526    4.20226828965458    5.34128648017981
H         0.92708729663157    5.81618141289701    4.99978201511460
H         1.95730952943257    4.59772633812857    5.76485684834012
C         4.45151210687106    5.19312560353978    3.53164251021895
H         4.56764226118219    4.11236046901032    3.66741704199797
C         5.53425544034834    5.70448394154407    2.58791726668982
H         5.35292575256873    6.75365370873675    2.36263448569380
H         5.56747345475636    5.13640580933874    1.66093308758413
H         6.50894168596787    5.62110938284098    3.06573462564394
C         4.55699523508589    5.91382637483405    4.87222114086240
H         5.56573471860811    5.83071822811591    5.27310755825890
H         3.86462229812738    5.50293931168976    5.60124904671449
H         4.31676422179593    6.96854143029399    4.73022655630096
C         1.81369560854712    8.30661120141938    4.17168697694870
Cl       -0.20687177590079    6.79347876718395    2.19279883474176
H         3.47717543523712    8.28155907401411    2.34536891058224

