87
CSD_code = MAMNOD | q = 1 | S = 0 | Stoichiometry = C36H44ClFeN4O(1+) | MND = 5
Fe       13.37692437199822    8.57167210009430   23.90856442560025
Cl       11.95962719580587    9.50911144955663   24.96975910646219
N        14.40085769968656   10.04823729517544   23.15780390431831
N        12.23205565443982    8.55511005149763   22.23564390562625
N        12.95331356523755    6.71194090560181   24.19329657971159
N        14.65945222726683    8.49711666904001   25.50827344875746
C        15.45010476393698   10.72882989345045   23.74695819275307
C        14.10117818784952   10.77558871380622   22.01955879400443
C        12.09352558938940    9.56645209267365   21.33214356620243
C        11.30186330604802    7.62568960470816   21.89121157198239
C        12.05668729101126    5.93243462961844   23.47855908315270
C        13.31521427304870    5.93421310480849   25.27549321134999
C        14.65851905653921    7.57602897669897   26.48510954967591
C        15.53492595888190    9.47476514583025   25.83518195799715
C        15.86640781887563   11.82876391815331   22.93979371957342
C        15.02539012943639   11.85406261885558   21.84917638205048
C        10.99413350043567    9.30689243705008   20.43487291146381
C        10.49919146888013    8.08285414179350   20.78414119239118
C        11.95236421661999    4.62483231596409   24.05678441048983
C        12.72681760592028    4.63316380067392   25.19082362475376
C        15.49371172240050    7.97226988498345   27.67750691349678
C        16.11312965681895    9.26418477303914   27.18428784987331
C        12.99898654970210   10.59650536141652   21.20566813864769
H        12.84910723381815   11.30501257337973   20.40753933188746
C        11.25082902277099    6.36242528447698   22.44785873784377
H        10.53268042743256    5.66484084092445   22.04927423420910
C        14.05044530859980    6.35387427765686   26.37417150945749
H        14.15899277046385    5.66006948938452   27.19151566308669
C        15.95429495712808   10.48631045336829   25.01664955044616
H        16.71641136743757   11.14129868586536   25.41073331547195
C        17.00413808833040   12.73950216681825   23.24028667539336
H        16.90925570040384   13.64789631150983   22.64536632155107
H        16.98413704443617   13.02810794889269   24.29267254020058
C        18.34338652314788   12.06500632162576   22.92435162942756
H        19.16057910721939   12.74675923310748   23.14221505458270
H        18.39221836371140   11.79181205265153   21.87292519666635
H        18.47435518756207   11.16488554225637   23.51969898399225
C        15.00482003610511   12.85031370750133   20.74450332628696
H        14.67697685053483   12.37942514341169   19.81655226429751
H        16.01528529963710   13.22932536899864   20.58584947909562
C        14.07841041863577   14.02440365295353   21.08280121669511
H        14.07619257578166   14.74201493995156   20.26714691399307
H        14.41596157746637   14.52745280144523   21.98531907509319
H        13.06031476499019   13.67955031066918   21.24705062016018
C        10.57029061538358   10.20722431393546   19.32715682176131
H        10.66386921183310   11.24834045306021   19.64214992504913
H         9.52066686498105   10.02132743182272   19.09521830151809
C        11.40521910669988    9.97800236282087   18.06326306225535
H        11.09292085604374   10.66514716972861   17.28164023073610
H        11.27365553133046    8.96250867659829   17.69952198635692
H        12.46346521818516   10.13259074171562   18.26098207794545
C         9.39593146637138    7.30488952044161   20.15505715200728
H         8.71174736665709    7.99215395686493   19.65558740777406
H         8.83327900807361    6.77405153172644   20.92559752489381
C         9.92852198686971    6.30114042616720   19.12764213459981
H         9.10605181895711    5.73290751982295   18.70184172282660
H        10.63049513728669    5.60818219055127   19.58577416531499
H        10.44152423793410    6.81826685566421   18.32120646094582
C        11.09077355742970    3.52188446930643   23.55149315815173
H        11.03645954676313    3.55514969231421   22.46242722159774
H        11.53196044592941    2.56473360878699   23.83279509476730
C         9.67884004570325    3.61434081513075   24.14185489719369
H         9.06338485039608    2.80464153152397   23.75992275811937
H         9.21114683299540    4.56076506508951   23.88143398274864
H         9.71398127505972    3.54053183193432   25.22577126254872
C        12.95361858781830    3.51864662256758   26.15225446814173
H        12.18325642359606    2.76019421574055   26.01415283067314
H        12.87289491545166    3.88657424474262   27.17709535231337
C        14.33117590482608    2.88133744113503   25.94344292837932
H        14.47551195610086    2.07039026998481   26.65191306302244
H        15.12485977228429    3.61109265914192   26.08381647652859
H        14.41224510169762    2.47797043670579   24.93707399116785
C        14.60885524239740    8.23980991962897   28.91280006199656
H        14.16089183206467    7.29762521829604   29.23467709417391
H        15.25861922257428    8.59879726329878   29.71258366137720
C        13.51443852137359    9.26758476409809   28.64974862710727
H        12.91596134369552    9.40206799137503   29.54683451105723
H        12.85480419028233    8.94940510589817   27.84384791027103
H        13.94438272291298   10.23092841733123   28.38365835387870
C        16.59421516773060    6.95279348466146   28.02258353196889
H        17.21187691450712    7.38986498784304   28.80876599099740
H        16.13471206250679    6.04667560112548   28.42154669932193
C        17.47586566287446    6.60494893300259   26.82840543502380
H        18.22587769901427    5.87631432514014   27.12447860250266
H        17.99140460734204    7.48936592985978   26.46034588677864
H        16.88983197272563    6.18214562741984   26.01366893151673
O        16.90834075947679    9.97427938466532   27.73997416249926

