74
CSD_code = MAMNOE | q = 0 | S = 0 | Stoichiometry = C34H35IrOP2Si | MND = 6
Ir        0.12007307779964    2.60645016329609    4.39278073324461
P         1.64060714121448    2.52986512399074    2.56686318743109
P         1.40995850460587    4.16887512336874    5.66910114123656
Si       -0.84255917618154    1.18693630999628    2.67775383735137
O         1.14031367561413    0.40468589316618    6.19933731380915
C         0.41363231229850    1.91081914754325    1.35406059470087
C        -2.60105608832234    1.33047045349920    1.91341725881664
C        -0.41520674801880   -0.69241957354016    2.71222599127396
C         2.39611827059502    4.00774243383448    1.80167958055156
C         1.53601788777398    5.03716906841374    1.42997237819887
C         2.03369587623742    6.21078306552188    0.89935441748661
C         3.40076831165073    6.37962039659635    0.75249916788970
C         4.26468480999548    5.37110466514362    1.14234686395785
C         3.76913170478696    4.19138825145199    1.66776186769242
C         2.95729663533006    1.28464009217516    2.34214529487498
C         3.36608151780181    0.47203604652178    3.38921225660749
C         4.32757038293320   -0.50308239305825    3.18582975525746
C         4.88714656912179   -0.67161522834447    1.93166594919358
C         4.48111634283760    0.13474797802402    0.87879665410936
C         3.51970340957209    1.10550340558189    1.08026303787157
C         0.77776176690914    1.20059221598783    5.44895178795934
C         0.83286907305391    4.89226112212030    7.24615064508684
C        -0.34556861807479    4.44969528795355    7.83131501958508
C        -0.76773884248131    4.98864804071426    9.03500172944244
C        -0.01635608444211    5.97118113087429    9.65633207090805
C         1.15987184737384    6.41811466544766    9.07302615570507
C         1.58531524636744    5.88350866348460    7.87252600829112
C         1.90283651854720    5.72152315432550    4.84212718587394
C         0.84466448727486    6.51982977652841    4.41463569575694
C         1.08675620285321    7.73275441809551    3.80182993676379
C         2.39070961765904    8.15764951949539    3.60180778265489
C         3.44516707378003    7.36901246994142    4.02623424544652
C         3.20752951091033    6.15634479171338    4.65037082184098
C         2.99039002164178    3.42831541645776    6.18507797443424
C         3.91058484342828    3.09545652642168    5.19479834854131
C         5.08106448455395    2.43538414518511    5.51367403365915
C         5.33366383102357    2.07844062869975    6.82875379812915
C         4.40943813559055    2.37954553412256    7.81538023338494
C         3.23994782467907    3.04831548505062    7.49936022402648
H        -1.15249034539457    2.62679572925598    5.27409723566923
H        -0.53461061714167    3.79194304075791    3.60947696988234
H        -0.02423884431390    2.75661161851446    0.82562249997275
H         0.84712231071636    1.21836342746991    0.63273792197055
H        -2.90679646137980    2.36315002096510    1.79178248006544
H        -2.64135186772112    0.84548741167176    0.94290970457283
H        -3.32439746901048    0.84691796703182    2.55853118322141
H        -0.98451100134572   -1.20379296512062    3.48028657833787
H        -0.65297202289551   -1.15771137800864    1.76032801436807
H         0.63971671554301   -0.86022583824634    2.91207094190235
H         0.47082690072804    4.91232119683295    1.57072001044114
H         1.35584738488123    6.99862265502445    0.60520156879685
H         3.79245759347423    7.29779782770117    0.34029612237262
H         5.33238325025954    5.50137300770831    1.03744836213090
H         4.45682149929593    3.40828720788675    1.96028351480217
H         2.93430652846578    0.60384377164146    4.37013630701781
H         4.63739189535445   -1.13006492212085    4.00922284170039
H         5.63813236957445   -1.43118446076242    1.77103894825446
H         4.91574421927457    0.00320138636927   -0.10178822402951
H         3.20283014041864    1.73617457131244    0.25951787725338
H        -0.92669887982088    3.68502383663073    7.33341421967364
H        -1.68481891929945    4.64083725141501    9.48724041839140
H        -0.34522704970363    6.39197271190852   10.59524175138174
H         1.74622992337967    7.18556917720534    9.55734926909659
H         2.50369265236487    6.22964678601435    7.41716475380395
H        -0.16790184613086    6.16965524106565    4.56685450812055
H         0.26026585322979    8.34791680252460    3.47720185170370
H         2.58473230828870    9.10335488960493    3.11745816682241
H         4.46293747321873    7.69952102943363    3.87600546175879
H         4.04309430532451    5.56122072039296    4.99107502666459
H         3.69219890367055    3.35403329843191    4.16534991786606
H         5.78884307555170    2.18583123427335    4.73572860478830
H         6.24436229554577    1.55559431171732    7.08112301684034
H         4.59691918591894    2.08599588013953    8.83799008938371
H         2.51755718132978    3.27052213766182    8.27226110599344

