57
CSD_code = MAMPOF | q = 0 | S = 0 | Stoichiometry = C22H30NiS4 | MND = 4
Ni       -0.00006155978320   -0.00140855045613    0.00057281575628
S         1.88675298366003   -0.21685379833097    1.11016407865865
S        -1.10391239362979    0.30437670513534    1.94217401491736
C         0.13744103281466    0.29955965659631    3.15159199615065
C        -0.18119635160093    0.54601883762284    4.48947191568708
C         0.79717230310105    0.48356553243523    5.45765079253259
C         2.11250861166400    0.18771835297606    5.12063479676931
C         2.44565742015255   -0.03995811736507    3.79849034376032
C         1.46027363823694    0.00247921629230    2.82840650421343
C         2.43145637791180   -1.95889487077787    1.03087630281762
C         1.39126659794048   -3.07755641817711    1.18841043733670
C         0.78459312927338   -3.08811745873690    2.59217397461130
C         2.14381964394245   -4.39395125857072    0.95341050414846
C         0.27841803128112   -2.94534823017022    0.14929199790355
H         3.20650416106707   -2.05424381793832    1.79186018928043
H         2.89139653315681   -2.01851363746171    0.04310188127352
H         1.55811163628805   -3.04591546474287    3.35669662104998
H         0.20854428263185   -3.99883477412052    2.73930042460575
H         0.11357474820363   -2.24575747095972    2.73499065400706
H         1.45863451312675   -5.23396520945920    1.03565144950220
H         2.93292683681902   -4.52347740926035    1.69091060011241
H         2.59105840803441   -4.41332169746447   -0.03782656748496
H        -0.43657556789723   -3.75717497857343    0.25776039368741
H        -0.28942105712341   -1.99221383708673    0.29348235568971
H         0.68723374043469   -2.97373587800619   -0.86054283111340
H        -1.20457037086181    0.77426959562422    4.74545307829943
H         0.53688875668093    0.66895188761689    6.48920418904789
H         3.46627903153067   -0.25039357222562    3.51397885546744
H         2.87408484881780    0.14595332515761    5.88388692289339
S        -1.88587114447730    0.21771635277001   -1.11020784539784
C        -1.46025019129499   -0.00226503819832   -2.82855137963145
C        -0.13736203293417   -0.29895895659885   -3.15176783528291
S         1.10364021915595   -0.30274733598453   -1.94197176345473
C         0.18124022859404   -0.54579975949759   -4.48955514180101
C        -0.79719950685372   -0.48364428550675   -5.45771390324948
C        -2.11255648817974   -0.18788574892731   -5.12069703349825
C        -2.44573324065827    0.03970664406460   -3.79852715563409
H        -3.46628328855457    0.25039877576033   -3.51401135045956
H        -2.87413057472920   -0.14600212060441   -5.88395985529770
H        -0.53692654211412   -0.66913547825519   -6.48926340017811
H         1.20458800580446   -0.77417907232049   -4.74547556864423
C        -2.43180062197082    1.95932366886643   -1.03097725152983
C        -1.39129034166477    3.07762601865492   -1.18835778291798
C        -0.78431067456606    3.08807248563043   -2.59192495331732
H        -1.55796615004535    3.04595180675755   -3.35621927162543
H        -0.20819827278501    3.99876369050771   -2.73917893811889
H        -0.11346570869361    2.24556244394015   -2.73480959428453
C        -2.14389167946799    4.39405362321958   -0.95355114864885
H        -1.45857152130286    5.23389762977487   -1.03569064966318
H        -2.93303291264438    4.52380158148975   -1.69109823696798
H        -2.59115152420520    4.41340285024339    0.03767212746645
C        -0.27830693947145    2.94467738198249   -0.14934938401794
H         0.43692791484883    3.75639155726279   -0.25774971894204
H         0.28917951110947    1.99117924838176   -0.29353955597032
H        -0.68749980254173    2.97348120744761    0.86030206589921
H        -3.20699501771892    2.05455532749618   -1.79194195190376
H        -2.89164166851229    2.01879884206630   -0.04311221451130

