71
CSD_code = MAMREY | q = 1 | S = 0 | Stoichiometry = C33H33N2O2Pd(1+) | MND = 4
Pd        4.61000046162529    3.02982787041658    5.46275765376654
N         3.67884771738552    1.33357454239298    5.21309731939177
C         2.91110420960095    1.31177403991821    4.17675593431235
C         2.00011306831699    0.33293920278323    3.60915603199977
C         1.40442855436422    0.96726751195379    2.48792146160107
C         1.84779638014041    2.30090163856749    2.30268446362995
C         2.78996156527979    2.55248993703263    3.38152727975195
N         3.37862960356118    3.59385139823508    3.84786231347679
C         1.60682906245547   -0.94657950169152    3.93043202179822
C         0.65026598673271   -1.57691195156962    3.11540246010922
C         0.08449594449081   -0.96535553270862    2.02149932025521
C         0.44320769451400    0.35754773683972    1.67640457264028
C        -0.06954325798903    1.14320502047118    0.61863904180538
C         0.35595802861915    2.43849048014467    0.44253306005779
C         1.31016261230950    3.04543225113296    1.27872698858673
C         3.78440192455331    0.26204987443644    6.11236245654920
C         4.45482922992433   -0.91636922941935    5.76412551350926
C         4.55703752759456   -1.91862265702861    6.71916324177604
C         4.00940858781821   -1.76088607723350    7.97940205289158
C         3.35619441278472   -0.58662524333198    8.31250017105058
C         3.23683262795045    0.44238714281475    7.39213474861811
C         5.06573241339889   -1.08791914120368    4.40512566341900
C         2.51038802466973    1.71289469830606    7.72138593559905
C         3.33568952573383    4.87618170552297    3.30898533076890
C         2.73549342579990    5.87116705738569    4.09527101005919
C         2.70378329367290    7.16629665446749    3.60739780455083
C         3.27994466077467    7.47231591023956    2.38557522320643
C         3.92200424992219    6.49092098153128    1.64951610573016
C         3.96560423295557    5.17924767428294    2.09561991255246
C         2.13750680299093    5.49088889904720    5.41670619674049
C         4.73738131594441    4.12024617372186    1.36588721546843
O         5.56426088203686    4.82807911864040    5.73114736644683
C         6.39578646947966    4.77770185929092    6.64162902874823
O         6.66142481134599    3.69326679691547    7.29460682322558
C         5.99188641498132    2.45546411657508    6.85228831861513
C         7.17042335846889    5.98669128353458    7.06637376501956
C         7.06912941288695    1.56147854714320    6.23325809456063
C         7.48389175696383    2.03720324261035    4.83529844260593
H         2.00214246600794   -1.46477141076178    4.79057651547431
H         0.35073441020588   -2.58235734885730    3.36932102290058
H        -0.64734215125412   -1.48862257312563    1.42513583927410
H        -0.80780428919703    0.71957403673969   -0.04510426927951
H        -0.05795218667283    3.02329557901838   -0.36478059213665
H         1.59502750623479    4.07311392679256    1.11126864001630
H         5.07465231539034   -2.83134524874814    6.46642747263689
H         4.09593754499334   -2.55311301512644    8.70588547794940
H         2.93229476969812   -0.46668692638354    9.29754386113221
H         5.92082236959838   -1.75665061611956    4.45904868811819
H         4.34455061775294   -1.52406299681208    3.71267628469090
H         5.39001583562597   -0.13253522530280    3.99360007857323
H         3.12895038046974    2.59987394366106    7.47659582561695
H         1.58509285428830    1.78163347271285    7.14662569910590
H         2.25981072718189    1.74348640566411    8.77804254373471
H         2.23135845923897    7.94163208780347    4.19111312523490
H         3.24920529291981    8.48523852948658    2.01596980147098
H         4.40613379137378    6.74606160405749    0.71894315062032
H         1.87628170898542    6.37710701734619    5.98852503962221
H         1.23591946318566    4.89202283887424    5.27599610738394
H         2.85814222540668    4.88868831590933    6.00260362805429
H         5.40586093856572    4.57364885331359    0.63927205569697
H         5.33463080561643    3.53669439098115    2.07308419417044
H         4.07507646981090    3.43410961009393    0.83662036651578
H         5.64114695101987    1.99937666046785    7.79324715345223
H         7.64533192606854    5.81079797180106    8.02637403175837
H         7.93639035771868    6.19662625513724    6.32107372929551
H         6.51038431229637    6.84895841044642    7.11493634901886
H         7.94920954828939    1.55609172879666    6.88411734020867
H         6.68111800777572    0.54135134448654    6.18519008123880
H         8.20617862452771    1.34873004776968    4.40278262408193
H         6.60706877126210    2.09270769207786    4.16132842859076
H         7.94993618150069    3.02221060554976    4.88629936084857

