34
CSD_code = MAMSIC | q = 0 | S = 0 | Stoichiometry = C14H14FeN2O3 | MND = 7
Fe        3.17501128827552    5.26926409816633    2.41530418077251
N         2.55045767932991    6.91413760666267    3.88403076012134
N         1.33827106998645    7.17155466946127    4.41753308096049
C         3.48342400224648    6.22001151453554    4.51871995602057
H         3.36502874053073    5.85468734687792    5.53963916044528
C         4.68317413287974    5.99369446239172    3.80356169739748
H         5.48212341697078    5.43402245267038    4.27149160897075
C         4.84815973130683    6.66225296254605    2.54754229829173
H         4.41598133296373    7.66067057814579    2.49529939447052
C         0.68416584670479    6.13094201982896    5.18892733420113
H        -0.30831778320171    6.47391841244770    5.46821167809620
H         1.24454594450742    5.92449025262111    6.09892721595550
H         0.59522701957027    5.20393661010871    4.60426662281214
C         0.48192580248916    7.78304791003514    3.42555578533251
H        -0.41288375876451    8.17272066529079    3.90474838303748
H         0.20081583592110    7.05734201647092    2.64754674815816
H         1.02576188793608    8.59955201986320    2.95678437922387
C         2.47511571327744    6.07691716333894    0.95972043486855
O         2.07925455800018    6.44685281952453   -0.04952424597068
C         2.02632349821729    3.98080748134100    2.81434404759474
O         1.31010634375327    3.08457093866116    2.92802338272239
C         4.03866877508601    4.00010937397790    1.56263580687779
O         4.52439192966066    3.15914382202179    0.95101465441844
C         6.07279751168635    6.52556976075890    1.75461563143302
C         6.91687462102504    5.41692903944922    1.85369724305704
H         6.66873921214157    4.60976049882902    2.52753725822947
C         8.06130832686451    5.32825653295418    1.08596910821486
H         8.70112038023608    4.46240714327435    1.17711182736651
C         8.38893290067206    6.33868903577808    0.19643638625681
H         9.28261032657697    6.26451546819898   -0.40509969499135
C         7.55837169477519    7.44094995740796    0.07996930153849
H         7.80356343993617    8.23118025308909   -0.61481647603790
C         6.41514915833558    7.53237159565413    0.84937654067301
H         5.76889942010289    8.39342351761618    0.75059850948120

