27
CSD_code = MAMSAU | q = 0 | S = 0 | Stoichiometry = C10H10FeO6 | MND = 7
Fe        0.96465780538135   11.15471179268544    3.34295119480142
C         1.56027000448810    9.63274730540192    2.68095937594981
O         1.90860278370851    8.62484758287058    2.26496450130199
C         2.41192230545062   12.19114301419651    3.24356207968980
O         3.40241920011038   12.75722856303178    3.22973801082255
C         1.37394418343148   10.92223351746864    5.05192449242625
O         1.71047015054427   10.79007429674482    6.13269916937609
C        -0.49394555016219    9.79215661010668    3.39944790258139
O        -0.74703103715116    9.08614187062895    4.33986758214073
O        -1.34310941907867    9.78506048373794    2.34843011658805
C        -1.46257377629963   13.07393758185838    6.00726771629209
H        -1.39377568933250   13.82865659647900    6.78928659712372
H        -0.90201671650190   12.19352822993819    6.31437187243818
H        -2.50636281820084   12.79822155585840    5.88671689986176
C        -0.90014520475503   13.60689591375716    4.69264132768827
H        -1.49241409003567   14.48502595648122    4.37094753657396
O         0.46000451375413   13.99248542127002    4.81935103006327
H         0.56777026826675   14.49937305830274    5.63170202013583
C        -0.94599572109199   12.54890218485264    3.61952946709275
H        -1.77252193367484   11.85340610011437    3.70034890276065
C        -0.25655032629142   12.73599501038153    2.43411516333870
H         0.28129397510862   13.67168838190948    2.30248220074015
C         0.00274745472643   11.67143653803700    1.52051026792702
H         0.52633065060600   11.95855919187862    0.61186314535475
C        -1.04938036932966   10.61354676005553    1.23616967906395
H        -2.00060149602359   11.07496624713294    0.93871361175171
H        -0.71170914764744    9.96473023481945    0.41863813611460

