75
CSD_code = MAMTID | q = 0 | S = 0 | Stoichiometry = C36H34N2NiO2 | MND = 4
Ni        2.32313081184511    2.12948466851622    4.63351166019392
O         3.01002047360498    0.85950698194467    3.47549933062972
O         1.57799465960560    2.92240596191109    3.14445162717808
N         3.15712385327830    1.37038555845577    6.13248573495127
N         1.61440829132537    3.42538858563369    5.77644109301952
C         2.97078488913529    2.15925132873987    7.34311778682733
H         2.84320830537094    1.51517374296172    8.22166474649795
H         3.84919552185983    2.80132685595985    7.50443939037017
C         1.73255491143641    3.04183505246635    7.17669558674255
H         1.82457300252973    3.91338401825027    7.83229543166832
H         0.83547399154912    2.47570798938933    7.46474161013144
C         3.98907458330115    0.35182688894781    6.14520766710139
C         4.21115527011819   -0.45445264341109    5.02147868574633
H         4.84242263895379   -1.31963016487249    5.12521376458762
C         3.72204822980182   -0.14483387494106    3.76380065164109
C         0.96391696340330    4.51758140596775    5.44754093187165
C         0.74782997742992    4.89823341636479    4.11301125235372
H         0.28945169694713    5.85371399590854    3.91868014589145
C         1.07835721943043    4.08049509993624    3.04357653082413
C         4.76841182207254    0.00398566326235    7.40303824243124
H         5.07043109218131    0.92968567078342    7.90004493116304
H         4.11179092499179   -0.54518471308180    8.08472356079781
C         6.00505325659333   -0.80112937252278    7.11662355874088
C         6.13921591275913   -2.10808662617182    7.56263535860024
H         5.34327749944847   -2.56346393597910    8.13548436314807
C         7.28102300203713   -2.83649545054077    7.27344710323123
H         7.37130290633553   -3.85407749005927    7.62515619740214
C         8.30025318991041   -2.26542959759967    6.53252734881942
H         9.18809265606087   -2.83591161333681    6.30285801097688
C         8.17677149147468   -0.95960037747264    6.08634702354785
H         8.96656697912288   -0.50756911606786    5.50509758893026
C         7.03919665463946   -0.23277176977986    6.37935557915961
H         6.93865187429771    0.78081252286058    6.01901962416621
C         4.17950632140773   -1.01450831077635    2.60070537401156
H         4.04186097665991   -2.06916046146475    2.83755775623973
H         3.59397239332372   -0.75449477890604    1.71809285328070
C         5.63538572432467   -0.69988679583269    2.38904066617982
C         6.62915766817337   -1.60103542077714    2.74379813406791
H         6.36024704682248   -2.57116247361624    3.13751955125451
C         7.96436903517667   -1.26763856244903    2.59581310877942
H         8.72799547463977   -1.98012231914822    2.87249577241568
C         8.31976465577804   -0.02581891722277    2.09989427083794
H         9.36195494091734    0.23588621014718    1.98728789159385
C         7.33345637364187    0.88238098659878    1.75059142587997
H         7.60707125411505    1.85549004092346    1.36851932655066
C         6.00050217052618    0.54763664937535    1.89544726614489
H         5.22862977758436    1.25890784154628    1.63964039096171
C         0.41801850138543    5.44886678045936    6.51080694983436
H        -0.21841653927629    4.89195977726521    7.20336391971041
H        -0.20920511382591    6.20005508614810    6.02448206355812
C         1.50974449951894    6.16064633257448    7.27195740602707
C         2.68464142302819    6.53750948667103    6.63164835402793
H         2.82170180949865    6.29880506715396    5.58700577012235
C         3.67793561983745    7.20481255355765    7.32572364463863
H         4.58791321953463    7.48774731323904    6.81737204188338
C         3.50831716452887    7.51019109142061    8.66563236482319
H         4.28432695463569    8.03099313410016    9.20666934259450
C         2.33818100170081    7.14503294599914    9.30895732294000
H         2.19737517093499    7.38107936307249   10.35363480981852
C         1.34634401711107    6.47330802204471    8.61649812702566
H         0.43561249996924    6.18763050595374    9.12502418041387
C         0.85975824621616    4.57852009216727    1.62319449559184
H         0.44915173924033    3.75559766370949    1.03451539679185
H         0.16618260735411    5.41815956224450    1.61004155190294
C         2.19711853401955    4.97978649941839    1.05501764173457
C         3.19137821657864    4.02184824014528    0.88841073346794
H         2.99042393856153    3.00071478849282    1.17734809122472
C         4.42826689720925    4.37799444323420    0.38451613091714
H         5.19546956417207    3.62769955746395    0.25862291743882
C         4.68606780309742    5.69439714419243    0.03749005994488
H         5.65137379840599    5.97241466708242   -0.36018964779996
C         3.70271586192950    6.65309231198520    0.20566173787354
H         3.89865507718327    7.68222844998009   -0.05953040940252
C         2.46548515254819    6.29805679091789    0.71654247696051
H         1.70262396895718    7.05292997864679    0.84746661839979

