51
CSD_code = MANDEK | q = 0 | S = 0 | Stoichiometry = C22H20N6NiO2 | MND = 6
Ni        3.66003423353560    1.12353648506713   10.79908867118255
N         2.40378284712950    2.39930706323318   11.23431267175955
C         1.40962616949490    3.01316517248795   11.09127211561892
O         0.44332993710223    3.68782239105227   11.03079852215172
N         4.90537418908789   -0.15763089209334   10.34644359366026
C         5.32764219256332   -1.07000158959480    9.73421006946896
O         5.83350392772540   -1.98507203797823    9.18705875587964
N         4.95423148526285    2.80224451170960    9.51583887951478
C         4.43926912446009    3.99954439325075    9.26112858112952
H         3.35866520913606    4.06025365034733    9.25875185553537
C         5.21486463837742    5.12196951962796    9.01597269469739
H         4.74776352366829    6.07396846991352    8.81630525927728
C         6.59420341845722    4.99157059502022    9.03079584628921
H         7.23214026268474    5.84375501900955    8.84479237329243
C         7.13618973394123    3.74141628125019    9.28233524150316
H         8.20461332511277    3.59033662859800    9.29362388262530
C         6.27673689688930    2.67970035600931    9.51691469141056
H         6.65557714575540    1.68401345544519    9.70900192445390
N         4.80162876162079    1.71131807275955   12.32573589451996
C         4.86432324518972    2.99147670069256   12.68594131238479
H         4.23895892936408    3.68181342235722   12.13713001715942
C         5.66541652700649    3.44777450647312   13.71949955951626
H         5.67953618842018    4.49854042897447   13.96356181673951
C         6.43518902740559    2.53955743472610   14.42636359873268
H         7.06965486637765    2.86084521385576   15.23911728154265
C         6.36505473958451    1.20646926335354   14.05901270380506
H         6.94151979147608    0.45544448015603   14.57621117312662
C         5.54281161284353    0.83978413593286   13.00642689217048
H         5.49121639184928   -0.19265216555195   12.69024371105477
N         2.65417115587316   -0.41440080470102   12.45563993729487
C         2.96165756253705   -1.70588041782919   12.47661605336397
H         3.42847656436304   -2.09653935652367   11.58169919097019
C         2.71493437346591   -2.52601670791288   13.56657162428428
H         2.98479824308031   -3.57027872924013   13.53473706466855
C         2.11493862385893   -1.97649152442440   14.68811030025139
H         1.90569821418030   -2.58414913674466   15.55685618902121
C         1.78444370540951   -0.63110823784896   14.66735651049644
H         1.30897555916893   -0.16193806553177   15.51484094446956
C         2.07317643069668    0.10661014466788   13.52989194743212
H         1.82445609689179    1.15814401389100   13.46588106432390
N         2.58457665725682    0.57390026836751    9.34732774937675
C         2.98407234153780    0.76707669093048    8.09285432050023
H         3.94347735282473    1.24820627311934    7.95859655331653
C         2.22970617438930    0.37898248415219    6.99888824449550
H         2.59885780215167    0.55992634602011    6.00157119037299
C         1.00921997419971   -0.24122866207746    7.20782003707443
H         0.39722531959989   -0.55815776961750    6.37668334598816
C         0.59658178419205   -0.44263629911268    8.51435914409657
H        -0.34578175967564   -0.91967496682600    8.73357414833758
C         1.41087720462756   -0.01893896359383    9.55063265968786
H         1.10820227785017   -0.15797754524415   10.57960218997689

