141
CSD_code = MANHUG | q = 0 | S = 0 | Stoichiometry = C72H62ClNP4Ru | MND = 6
Ru        9.11140772088973    6.46232017405542    5.12814432485428
Cl        8.10916660553527    4.58149495409123    3.90902177778283
P         8.69769677393169    4.90664725794889    6.75798434595470
P         6.94992451501762    7.12314972396326    5.58399974819984
P         9.57764556979281    7.93936042999304    3.42931086065334
P        11.34635619869312    5.98290307662115    4.94570840383148
N        11.32585066868968   12.36170960358047   11.30983114481601
C         9.75540538318473    7.86006107349079    6.41735665662382
C        10.05865925198267    8.66172071811969    7.27661114104981
C        10.41689463422436    9.59628773782519    8.27591509862034
C        11.03018405279286    9.17819307789599    9.46033842475575
C        11.33162340010562   10.08431247097405   10.45392647546928
C        11.04272825490925   11.43758915841026   10.28765015382131
C        10.46338654821777   11.86493281282869    9.09409036881013
C        10.15447393711431   10.95786718529457    8.10480717123770
C         6.85557955564494    4.74553139655461    7.05466782192175
C         6.03148499598938    5.60258405699272    6.09557531633449
C        11.42876334064748    8.08903150974427    3.24673551710269
C        12.13462029969225    7.60059518780053    4.50281131502954
C         9.29558891662572    5.21605041774504    8.45378051279289
C         8.78707662502204    6.32450700137105    9.12484859894346
C         9.20769433869456    6.62422870538997   10.40558143359688
C        10.16186821408201    5.83129671997574   11.02352700543702
C        10.70082856685995    4.75083468724782   10.34663571166771
C        10.27609291601088    4.44435066814319    9.06601064277763
C         9.18875891964193    3.16084410653310    6.56838350741915
C        10.04555884793079    2.76614340666825    5.55278215549882
C        10.41791135925561    1.44020701408066    5.42230372572375
C         9.93927808980807    0.49805724531595    6.31558947295344
C         9.09342597200976    0.88684902610702    7.34317071739755
C         8.71939512565108    2.21039005690969    7.47318464597266
C         6.63358255983432    8.31512992073502    6.92738990855036
C         7.13230628269770    9.60198649083566    6.73599058956712
C         6.93382088334790   10.58308952490579    7.68775909027772
C         6.25991251986657   10.28409065266801    8.86080797917660
C         5.76670207800970    9.00739360530617    9.06287278018265
C         5.94259396561563    8.02807138461012    8.09921297999902
C         5.81358270173486    7.74924712661513    4.30013978200494
C         4.97118941134004    8.84235304661489    4.47112432785955
C         4.16862227183120    9.26498650901774    3.42583879416653
C         4.19892365515905    8.60918483984125    2.20649990824160
C         5.02844158920072    7.51264664065151    2.03439937545133
C         5.82892962517488    7.08486838707449    3.07601636408792
C         9.18763015818571    7.76601267167346    1.64843603360621
C         9.51791713684350    8.80252184196344    0.77647642751605
C         9.27790119926683    8.67471126498172   -0.57711224181415
C         8.71012568721124    7.51270437785446   -1.07801965548413
C         8.38915109756003    6.47803333285167   -0.21834634958909
C         8.62915118690774    6.60186584213700    1.13995175939694
C         9.05874402040015    9.67191208740056    3.65439205908540
C         9.81327371614572   10.57379119291989    4.39742195298494
C         9.36756254029537   11.87272266770853    4.57212640910651
C         8.15575213178069   12.27439084757468    4.03484235620331
C         7.39070028154384   11.37446863249876    3.31030829293055
C         7.84120965953108   10.08261096277161    3.11537057731230
C        12.11717602706810    5.01595101088988    3.59478901287905
C        11.32776774816564    4.56432050314792    2.54475881322195
C        11.90346874755113    3.91926071950831    1.46384675516634
C        13.27253356280952    3.72193977298330    1.42632052105488
C        14.06660408854443    4.17450013224475    2.46976002435412
C        13.49638521263129    4.82409779472578    3.54742557220082
C        12.31318389714871    5.44857013442818    6.39397107493959
C        12.54611804309137    6.34517774210799    7.43300357245833
C        13.25824713515942    5.95067646330594    8.55027548173239
C        13.73769482653743    4.65564714155716    8.65115838875523
C        13.49422545848436    3.75262682416017    7.63003044570854
C        12.78674119054661    4.14345076144344    6.50799631656163
C        10.38951972561262   13.35054003949609   11.61196419977131
C         9.02319217953428   13.08822293773009   11.49305163333108
C         8.09672345449866   14.07108942888492   11.77876598646280
C         8.50818813058499   15.32698236750300   12.19419237828393
C         9.86232541895519   15.59379929021108   12.31400119535214
C        10.79759733842178   14.62094916464670   12.02170540272066
C        12.52982272014422   12.26755382381128   12.00824347289255
C        12.59529906668436   12.57621968963802   13.36791785663306
C        13.79245970304056   12.47674228152383   14.04874712405172
C        14.94096449676662   12.05966420899986   13.39573626221856
C        14.88068276945949   11.74262567272164   12.04857088828802
C        13.69048947410508   11.84708794587332   11.35661178802392
H        11.24861866661222    8.12957119261591    9.60051150996819
H        11.79035921110935    9.74929100321432   11.37389503589656
H        10.25428694930260   12.91669766666590    8.95479596572483
H         9.70773836623527   11.29235507397241    7.18127092719949
H         6.67431399697678    5.03550475851509    8.09492555961874
H         6.58526960226373    3.69126755832097    6.93632112355714
H         5.05461882140571    5.87196753896718    6.51140533372450
H         5.85484065604593    5.05634105547635    5.16204702874547
H        11.70172312814175    9.11770363263790    2.99236990348053
H        11.69968850365485    7.44242238744496    2.40167011132683
H        13.20888640545941    7.46963982277684    4.33605410298564
H        11.97484330703396    8.29305675088597    5.33290462009510
H         8.06690049286010    6.96093962432118    8.63034348084035
H         8.79843076296470    7.48364785024825   10.91697026840993
H        10.49287507577370    6.06340062212529   12.02548580629354
H        11.45756997893823    4.13947749814906   10.81684742888691
H        10.70939778845787    3.60137475609334    8.54689259258238
H        10.40453234789292    3.50340372670193    4.84492752052598
H        11.07751614781990    1.14389097083219    4.61895733423110
H        10.22366927787442   -0.53922789127212    6.21462419337937
H         8.72463488255788    0.15356665396264    8.04619345488584
H         8.07356050409624    2.51268307275052    8.28747729317961
H         7.66795850984374    9.82013298056869    5.82409403048257
H         7.30303863273413   11.58352118314121    7.51873063479996
H         6.11585544370510   11.04597826623509    9.61290432472905
H         5.23605572008833    8.76895355622286    9.97384206228967
H         5.53439854182625    7.04403600640350    8.27821312095386
H         4.94173812452698    9.36808770431306    5.41424937209226
H         3.51659894578686   10.11555799610163    3.56551471644254
H         3.57635384742087    8.95157753174113    1.39259528604318
H         5.05683660997159    6.99488768359344    1.08663021838387
H         6.47767455385125    6.23040714409579    2.94669331093918
H         9.95452408035485    9.71329963904402    1.16377516446828
H         9.53358252075919    9.48365858049322   -1.24668626882156
H         8.52161203552185    7.41843857306968   -2.13773113022475
H         7.95004874238449    5.56890148770623   -0.60301014283718
H         8.37810306743258    5.79040401013577    1.80658147129645
H        10.74369951229803   10.25884833278914    4.84687118037348
H         9.97000889930777   12.57721356991283    5.12853498969053
H         7.80926561030883   13.28735741360706    4.17893171412443
H         6.44329224546131   11.67985325945378    2.89067839040558
H         7.25396594816851    9.38532027180739    2.53380171772393
H        10.25692602538209    4.70912291460766    2.58282093941634
H        11.28032770942675    3.57218360223179    0.65282834983875
H        13.72554289899400    3.21662878831441    0.58572152683317
H        15.13620287667625    4.02218198550604    2.43995151335945
H        14.11876235835483    5.17659946323881    4.35942412677912
H        12.15196797543581    7.34767002275411    7.36945371356201
H        13.44080015767494    6.65830061045858    9.34623802764211
H        14.29725475861321    4.34957610120564    9.52309376632672
H        13.85859623046405    2.73780871337719    7.70455009416580
H        12.61401615711788    3.43098044981461    5.71423493985250
H         8.69771945802261   12.10751436865487   11.17708796706395
H         7.04259201680313   13.85237300818075   11.68509311774715
H         7.78047026046771   16.09144365621281   12.42096442016775
H        10.19443883742751   16.57244274047083   12.62895677072027
H        11.85251419446135   14.83941389579221   12.10262600917645
H        11.69983938022695   12.88843611725164   13.88548838146723
H        13.82678728528491   12.71825981649001   15.10127186309644
H        15.87425942519429   11.98098309307948   13.93257038095679
H        15.77107450785892   11.41901566006243   11.52894194236483
H        13.64965464944326   11.60711411022501   10.30404953075568

