46
CSD_code = MANJOC | q = 0 | S = 0 | Stoichiometry = C16H23Cl2N3OTi | MND = 5
C         8.06184119833615   10.16567155739165    6.29952853356300
C         6.87502740989427   10.52135840139701    5.61902515196871
H         5.96484646218210   10.00412530455403    5.89458326934082
C         6.87307897035868   11.49099106173748    4.64269958524462
H         5.95012941082500   11.73452053507238    4.13490351109693
C         8.04133270420889   12.16017238641795    4.30542009418064
H         8.03441269216105   12.91913008301375    3.53804202309910
C         9.21998819047356   11.84735140145025    4.96607852631532
H        10.13731195832298   12.35797519340609    4.70612106872583
C         9.25221249956108   10.87104385469624    5.94127230019126
C        10.48308974102062   10.50980354179447    6.67478199565054
C        11.03577557943050   11.51418995378697    7.56570749027762
C        10.75571755628354   12.84955017712291    7.71062360053881
H        10.05165276404357   13.41660240610585    7.13819670733331
C        11.57835272208293   13.32093390058200    8.75888885163550
H        11.62819979721029   14.32034147775045    9.13954184129863
C        12.29378717648917   12.24669414299882    9.18747766273516
H        13.03414207689104   12.13574209044731    9.95517903150636
C         9.98432403427713    8.55753396797522   10.95412689642691
H        10.52601006682091    9.21104205287079   11.65219078419381
H        10.60890266567972    7.69056691348331   10.72746583125403
H         9.06350486346448    8.21578601895536   11.43548577155418
C         8.90136779826984   10.49162861030192   10.01724094957640
H         7.95512463060214   10.22184392629162   10.49423701425918
H         8.68236039031648   11.02576501827437    9.09009232418709
H         9.46654527894758   11.14987774325595   10.69248833209171
C         7.58142410299214    5.19488553089329    7.74071484347351
H         6.96959428120521    4.49719600478234    7.15227350661255
H         7.15176863617288    5.28851910829241    8.74099274049662
H         8.59215714469419    4.78862486811439    7.82558651007425
C         8.15514515078351    6.42469292201418    5.74315722496553
H         9.19432747230789    6.08340998886092    5.77505469853825
H         8.11430585898931    7.41224612275247    5.27511398285812
H         7.57084240412868    5.71450096996965    5.14060723771044
N         8.07025375090916    9.24107015310221    7.24655865475153
N         9.64863000127954    9.26790675858479    9.71744136455840
H        10.53193470407190    9.53813509335764    9.26870472233645
N         7.64260005554928    6.51351914184707    7.11000488614704
H         6.68874038661578    6.89207580188126    7.07269008719905
O        11.97432840533753   11.14812241902821    8.48046723636073
Cl       10.44179568828314    6.67942241173595    8.29695555280839
Cl        7.00864412397307    7.71947642744915    9.80351353911443
Ti        8.65259541493503    8.02919599397635    8.28924006755683
C        11.00145595533994    9.27649610991067    6.58486803370558
H        11.89730186060655    8.99528722099187    7.11878685723979
H        10.59631596374478    8.55907523148956    5.88566910524976

