43
CSD_code = MANKIX | q = 0 | S = 0 | Stoichiometry = C16H21Cl2N3Ti | MND = 5
Ti        0.96716741965466    6.15492520765058    3.05560237084129
Cl       -0.55619375382231    7.84407661229012    3.28468181863195
Cl        1.47640241150620    4.48972235815824    1.62247917784748
N        -0.63163649924102    4.93309802689710    3.66546464534894
N         2.00819412256956    7.48711807527283    1.79250914381469
H         1.92343408842393    8.37832324231081    2.29468002094271
N         2.08632676293963    6.28481075781625    4.32388179004664
C         1.53685163965117    2.41107856984257    6.03422485195052
H         1.40290206678742    2.38055967776044    7.11370279577649
H         2.46997012492230    1.91294454142741    5.78380257078194
H         0.72011822705438    1.85967376662923    5.57087678360462
C        -1.91403854303258    3.47312053849580    5.03389484391887
H        -2.04091027113258    2.97752347632909    5.98401897792801
C         3.42738704183725    7.20286830063042    1.58566612716083
H         3.52808394810933    6.23564347804019    1.08605578489962
H         3.92841823915597    7.14648818163023    2.55518627920176
H         3.90519524628456    7.97571483436178    0.96747535431156
C         1.29087461585545    7.60672237928241    0.52493930036155
H         1.75220665371548    8.35984174524578   -0.12935184189260
H         0.25534238134386    7.89994114550223    0.72124057759858
H         1.30952297615906    6.64053665350388    0.01123395067749
C         4.80071095462862    6.37359324733169    6.75052423140139
H         5.61431000644490    7.02201346524701    7.04459237725824
C         4.59656371613727    5.17540251478690    7.41659833956573
H         5.24661089947668    4.88511937723621    8.22819274779178
C         0.21145026705726    4.55866135925748    5.88314096460467
H         0.39570543607529    5.64152236474368    5.91898790767028
H        -0.13321951965083    4.21565757949762    6.85960064580461
C         1.55000115704163    3.84673184392822    5.52264748618917
H         1.62647068732183    3.82744922858039    4.41764232369103
C        -2.82639888039967    3.29115674782841    4.01175196535353
H        -3.68115851754984    2.64510656340305    4.14590138704368
C        -0.81931597887597    4.31371131900570    4.83485363003193
C         3.54894329170722    4.34749091954308    7.03742990454162
H         3.40363748289591    3.41720123875807    7.56625099948883
C         3.96960024208257    6.74745268003471    5.71867476734298
H         4.11208423335324    7.68886112454542    5.20221803244060
C        -2.62769580208677    3.95864238109752    2.81011889150452
H        -3.32061894762314    3.85228140326822    1.99093783488835
C        -1.51340832758597    4.76863421525224    2.68326366369097
H        -1.32204560939982    5.30978386875725    1.75747330698413
C         2.70427557880932    4.68997774619214    6.00247699773477
C         2.89877873137567    5.92411724263598    5.31205627122961

