53
CSD_code = MANLEU | q = 0 | S = 0 | Stoichiometry = C18H28Cl2N4Ti | MND = 5
C         3.11420053541663    5.40662224836476   -2.01912312651730
C         2.29172216574881    5.67120698764276   -3.13829812695154
H         1.30334978892106    5.22865689713078   -3.14709548687345
C         2.72879019312849    6.46583404099539   -4.17280486543129
H         2.07983623605720    6.65293980575222   -5.01723421980840
C         3.99392569529342    7.03321588601621   -4.13370263113883
H         4.33468582323960    7.66382944479100   -4.94124562960181
C         4.82105535268368    6.78903217517953   -3.04673007225892
H         5.80296490539563    7.23980962522671   -3.02818081381931
C         4.41897042058917    5.98496664864730   -1.99943938487636
C         5.28339185835991    5.69919221698295   -0.79758046762460
H         4.94708242697371    4.72857451370708   -0.38747072209599
C         6.77196087543777    5.60857594610351   -1.12032836601274
H         6.92824638837022    4.95282141045057   -1.97395716869945
H         7.31607800964958    5.19981106193856   -0.27140228574606
H         7.18780268886993    6.58612593124471   -1.35578146081633
C         4.99646249054696    6.77065201695637    0.28571508891569
H         5.42489882377349    7.72312325109420   -0.03137078911414
H         3.91162319472986    6.87208722277932    0.37026808199708
C         5.56021999086321    6.35335582597680    1.60421611580820
C         6.85645224895567    6.69300877777206    1.98690889365061
H         7.45899416105668    7.32060103335275    1.34885685793146
C         7.35428551130682    6.21852554262987    3.18636852100887
H         8.35839066116901    6.46477369297976    3.50027352466841
C         6.54256814554460    5.41998056160966    3.97845500351410
H         6.89144604076330    5.02323904199986    4.91847933615433
C         5.26283089009421    5.14880857396266    3.52925916304826
H         4.58651926492872    4.54162928690855    4.11711296212995
C         4.26195071650900    2.11212776034961   -2.23347342474366
H         5.12991114768132    2.01372292220781   -1.57532297909445
H         4.25232184195714    3.11745064304987   -2.66095014866817
H         4.34934637984848    1.37628000860284   -3.04570868166182
C         2.96901968999713    0.52405213116821   -0.95860746687355
H         3.02750616751673   -0.20182355721383   -1.78219942755782
H         2.02697390312149    0.37722443963092   -0.42408303418145
H         3.80099416320478    0.34192617306683   -0.27321299118228
C         1.22415074770200    5.54510009289713    1.57662048322859
H         0.26298274794537    5.06454352188498    1.36965721445953
H         1.49153877581256    6.16222926783349    0.71546501806168
H         1.11962628704930    6.18064091709859    2.46749115142231
C         1.91926971292944    3.68375290019532    2.92816217684191
H         1.79981742362560    4.29009798759274    3.83785726598924
H         2.71409188102965    2.95140249482738    3.09292514463861
H         0.98126481037195    3.15046075640175    2.74193947531274
N         2.68142609016287    4.63477490634176   -1.02979945153511
N         4.78233636395122    5.60211093831503    2.38086563021485
N         3.04488926520041    1.89937657665039   -1.45093077030188
H         2.23678763091662    2.06385034748824   -2.06285753731119
N         2.24645493966044    4.51975526351981    1.77477973840348
H         3.15823502456224    4.99596650221175    1.96896739018364
Cl        0.59281770352562    2.51592572063424    0.17689170735792
Cl        4.50670525698212    2.53710235659621    1.14542803289687
Ti        2.69072654089357    3.37434926043928    0.10792755264351

