41
CSD_code = MANQUP | q = 1 | S = 0 | Stoichiometry = C17H17N3O3Re(1+) | MND = 6
Re        4.18307301829464    1.48306409638549   13.99855946412435
O         4.31615525926639   -1.34492328156766   15.24606264952853
O         1.09921916202724    1.31930882448475   13.80016817718987
O         4.18233810459284    2.78742279224013   16.80455764656575
N         4.29400725606150    3.48317524635271   12.90724035181703
N         6.30969026200308    1.73973768142478   13.75454109521494
N         4.46209889238676    0.85920319038749   11.95409761436751
C         5.66888958209572    3.98147807260371   13.09169078760259
C         6.69188330667995    2.87954929957876   13.16835513478589
C         7.99004519131285    3.07690212528040   12.71739219639263
C         8.92702741710428    2.07290825500218   12.89139524151712
C         8.53094477315849    0.90126832624753   13.51909759792608
C         7.21661566546889    0.77713653461439   13.92796334129475
C         4.03800696135607    3.19972870985593   11.48361358694395
C         4.52953772033969    1.84381601924817   11.05141067404171
C         4.95727800755414    1.62161956110008    9.74933848094981
C         5.31042966925505    0.34045362113415    9.36210203296032
C         5.21753349726355   -0.68100243124429   10.29572568783644
C         4.79508944479489   -0.37586932397988   11.57570983459976
C         3.32081028904877    4.48752995046817   13.40596058736557
C         3.35434490415731    5.84730612605179   12.71465426759327
C         4.24869212923529   -0.29629796680035   14.80155873848708
C         2.23181551926185    1.36355533469838   13.91440997069255
C         4.15208643467218    2.27787160007488   15.78614527053360
H         5.94926694255504    4.69127967490099   12.30360280001533
H         5.70832292577430    4.51375618101219   14.05097307727790
H         8.25912669808706    4.00906742683056   12.24592416774727
H         9.94169297676034    2.20487604026536   12.55109363652387
H         9.22589505455828    0.09608891955314   13.69007331913768
H         6.87488459645620   -0.12195495762724   14.42265684754888
H         2.95114611268653    3.20234294526862   11.32947593706405
H         4.46922783593365    3.97250789402082   10.83519118762356
H         5.00188183679845    2.44260470325131    9.05103862716263
H         5.64336234587803    0.14407222692018    8.35545626995443
H         5.46739405850859   -1.69707114054316   10.03949903580544
H         4.70927210570343   -1.14854207656914   12.32767385605940
H         2.32074071890221    4.05758877234748   13.30206323793564
H         3.50641485932936    4.62464800057950   14.47486558418496
H         4.31251104456142    6.34563715530757   12.83771483752695
H         3.12635794489507    5.77349418763934   11.65437607488290
H         2.59588947522048    6.47806168320083   13.17007107321804

