38
CSD_code = MANSOK | q = 0 | S = 0 | Stoichiometry = C11H18Cl2F3N3Ti | MND = 5
Ti        3.47923093824909    3.35896055294260   15.62263773489654
Cl        2.07638735339236    1.83613048331866   16.58182677827718
Cl        4.58547952923004    4.75910109597654   16.94240080960054
N         3.33514216600215    2.91891620185890   13.96901091514841
C         3.56011394751775    3.04547568655173   12.68190554239725
C         3.08380568405571    2.11450910181407   11.71992537049699
C         3.32986152439177    2.28554135679631   10.38242197697221
C         4.05679231141898    3.37890681406841    9.91048710169648
C         4.54399128806900    4.30928294464054   10.80643336438676
C         4.30706238327716    4.15076947296850   12.16294635391260
C         4.81047241822208    5.10156800293140   13.17518778062355
F         5.51214383864640    6.13263969833535   12.70973900047315
F         5.59979264097339    4.49999727893727   14.11946898618049
F         3.79648877908947    5.65687100783841   13.93379279743086
N         4.95458206700576    1.79885909622562   15.99090118940573
C         6.19721739111091    1.81533337609295   15.21965541242190
C         5.23390404371686    1.62999179298395   17.41920004223928
N         1.81639123946810    4.72824503029702   15.76241755848664
C         0.73699813095807    4.42285000963383   14.82027747312495
C         1.28778983859622    4.87786346904644   17.12189583744753
H         4.40583404143863    0.98503114879140   15.68587273692372
H         2.21539962627315    5.63574127629609   15.50259872988891
H         2.51739530519891    1.27014858947150   12.08633021626469
H         2.95206600319999    1.55965479539775    9.67623285061499
H         4.23782831289632    3.49724778057437    8.85439074457959
H         5.11136566970838    5.16252272107536   10.46414396797831
H         5.96653072014588    1.85554178436875   14.15305103075051
H         6.77742372929886    2.69995728476907   15.49139608214615
H         6.80124449619207    0.92020425667553   15.42345029460348
H         4.29288739890831    1.55638313560545   17.97060988198545
H         5.79243005206607    2.49538749993591   17.78289685360814
H         5.82710686791710    0.72374430506496   17.60288997228941
H         1.13136118550382    4.40633484631107   13.80171109548579
H        -0.07064435793400    5.16476323814957   14.88587452261112
H         0.33233851398726    3.43478972651414   15.05544374063310
H         2.09759194862956    5.14779719280205   17.80336751141453
H         0.51438497386647    5.65664815879504   17.16037091443762
H         0.85130799932145    3.93108978614880   17.44793682816737

