86
CSD_code = MANSOJ | q = 0 | S = 0 | Stoichiometry = C44H35N2O3PRu | MND = 6
Ru        5.07612951985798    7.05728577393460    4.31554701485666
P         6.13824377963129    5.05025042928359    4.00566527361659
N         3.83120922583389    6.69730230256069    2.75054367558251
N         1.71105892096022    7.16464998488214    1.02208156044549
O         6.52831729172616    8.03737453890737    6.73604674994249
O         6.30630643132250    8.38865853992408    3.04881252399183
O         3.80002884934365    8.76482440207272    4.52390913892450
C         3.60210034550858    6.09599957824755    5.30540737733663
C         2.41660626041794    6.13413593942072    4.54202677167503
C         1.23066604747135    5.56843280942588    5.02055811393156
H         0.34332594964822    5.55183086346505    4.40435296168027
C         1.20620104029183    5.00413907852379    6.27788337862314
H         0.29458974589438    4.56005769945812    6.65059700769300
C         2.35345345418890    5.00337757367971    7.06193354411100
H         2.32527900223062    4.56960957588086    8.05180961005070
C         3.53363088241215    5.54055513266943    6.57796377709948
H         4.42018858143667    5.51505169165141    7.19881170400957
C         2.57275378198067    6.65540132873514    3.19302983060993
C         1.51300149241435    7.04608486875055    2.31073631722669
C         2.95304119879486    6.97856961132386    0.53652484616984
C         3.17938673330841    7.01234082739660   -0.85013991375081
H         2.32468169122062    7.10665077351165   -1.50134953967043
C         4.45654698023820    6.93359760089315   -1.33721295948025
H         4.63270197288278    6.96313517202288   -2.40240634765101
C         5.54595181122946    6.81763991198893   -0.46303321373898
H         6.54546428230456    6.75508993232140   -0.86754973368000
C         5.35717630659812    6.76759807447050    0.89253728415758
H         6.19398347684020    6.66056909243670    1.57054580606496
C         4.05689020410222    6.83784875230424    1.42332897581512
C         0.19668282782451    7.46215452366834    2.80890792962666
C         0.09076722335190    8.19989600978651    3.98727932307083
H         0.97874153055242    8.42275603304804    4.55960808866469
C        -1.14465505980262    8.64732178835842    4.41333966700743
H        -1.22107611207372    9.22099532802155    5.32530663189170
C        -2.28306728748134    8.36341924243443    3.67524925535614
H        -3.24794692537191    8.70954811476356    4.01570760571615
C        -2.18095093919518    7.64134145501564    2.49742952038630
H        -3.06643913781465    7.42497025759635    1.91770999876135
C        -0.94644150868064    7.20049936191945    2.05880106466055
H        -0.85008197578126    6.64438232337647    1.13883074373587
C         6.00967841012109    7.60187908156394    5.80762376263431
C         6.95936217155705   10.21151969580689    1.69716444342514
H         7.80700464350964    9.55796252304896    1.50681380308277
H         7.31354481186602   11.15329297610935    2.10934544986387
H         6.44789187580932   10.41789621913114    0.75935499874020
C         6.00108202930151    9.54297851952467    2.66701675472722
C         4.87147612028961   10.28346918219351    3.03568902578134
H         4.76910549492189   11.26820535470907    2.60530573828208
C         3.87951676431340    9.87010874027275    3.92520971714145
C         2.74744302163581   10.84559925770715    4.19566188074234
H         2.26197710113721   10.59101525444658    5.13497643811518
H         2.01275102996665   10.77525627957222    3.39358192591949
H         3.11733855287848   11.86592410512799    4.23872417086457
C         6.20804664122019    3.90564519629360    5.42964932482857
C         6.84750338357142    4.40550025059716    6.56190541501990
H         7.23554829133978    5.41612830277134    6.53611126013829
C         6.97976904601633    3.62626041232150    7.69413707198796
H         7.47463050727573    4.02214975788820    8.56873699924383
C         6.47155139923045    2.33619678370359    7.70667245857354
H         6.56634121717317    1.72592723064887    8.59265779269516
C         5.84625210590041    1.83043187256992    6.58076521160770
H         5.45670071462469    0.82264813194322    6.58623028279106
C         5.71717468891364    2.60720109039697    5.44102813778200
H         5.23537987883305    2.19609382176308    4.56572437094340
C         5.33766278615405    4.05317639852779    2.70460401813951
C         4.01494060929072    3.66713237892031    2.92085623072110
H         3.55653549528204    3.86802474076696    3.88133602655166
C         3.29449705572353    3.04939350248721    1.91689547833364
H         2.26847198937336    2.75933079210527    2.09197798524899
C         3.88419785406890    2.81384480935752    0.68423798133669
H         3.31747419300480    2.34203447332251   -0.10471694608146
C         5.19847776936549    3.18838016552540    0.46572446935242
H         5.65919842393171    3.00708629049191   -0.49432928284059
C         5.92397764153890    3.80994840814142    1.46790485561082
H         6.94610887251674    4.11033955496354    1.28514298062853
C         7.90638448996424    4.98933237005262    3.55974502347831
C         8.61455863135606    6.17775073949849    3.43176707491139
H         8.09418750801586    7.11694549515556    3.57088663469621
C         9.96551383933344    6.14745543567624    3.12846332830760
H        10.51719903308839    7.07085120495855    3.02845095774495
C        10.61068007488237    4.93421819688761    2.95781041700743
H        11.66463500924396    4.91063542152594    2.72213965801529
C         9.90754147079915    3.74622033644378    3.09419328215241
H        10.41473567681935    2.80090783748541    2.96605649813369
C         8.56007566024289    3.76961246003208    3.39861852478427
H         8.00642811895276    2.84744264945499    3.51431700431015

