113
CSD_code = MANSUP | q = 0 | S = 0 | Stoichiometry = C59H43F3N2O3P2Ru | MND = 6
Ru        4.53366832636182    3.17280690080570    2.73604464905093
P         2.16103269913821    3.07702541160602    2.79373637088402
P         6.85411532615048    3.32353902924608    2.95164049681942
O         5.03288470331369    3.63343745639251   -0.16697926518193
O         4.30412473967695    5.46818237085736    2.89116842878127
O         2.80722427618164    5.25052584699349    1.25240779679675
C         4.49194687868433    1.16486792278445    2.52930323177895
C         4.60179255229434    0.44284520390966    3.73290808968828
C         4.45840629058568   -0.95062826454160    3.74697494138806
H         4.46823098504994   -1.49221526492728    4.67953171223689
C         4.25520870611362   -1.63420634091928    2.57067359295218
H         4.14560217859592   -2.70856885694246    2.58390277980931
C         4.16422906671415   -0.93801050370000    1.37060275108813
H         3.99070451623112   -1.47502472593865    0.44865381554892
C         4.26586852771439    0.43927217871417    1.35840627802565
H         4.16014625757231    0.96060953716741    0.41492015888628
N         4.56471797499791    2.57307363755192    4.76154804560341
N         4.76042281935708    1.43846074166723    7.30203240840003
C         4.74771628875502    1.25717715106540    4.92136344765390
C         5.01593325762502    0.73587966291886    6.23031457288681
C         4.44781762899766    2.73767488315230    7.15807933832215
C         4.20263870470826    3.52258242186512    8.29815623968470
H         4.12546658793235    3.02073446076667    9.24985529148752
C         4.11925422843340    4.88401984470227    8.18573978680431
H         3.94458537637821    5.49262825034367    9.06039466671846
C         4.29930450452883    5.50043826515420    6.94014584588227
H         4.28180941033291    6.57769524583633    6.86997068330516
C         4.48905215769970    4.75529458838152    5.80541122419631
H         4.64110821483396    5.24112831032117    4.85334289597378
C         4.50945143077925    3.35108743235767    5.87485692424620
C         5.69109382937224   -0.54814397442686    6.45882933771418
C         5.31117537124193   -1.35762115982222    7.52509543875183
H         4.46903949091910   -1.05930698173902    8.13019951221597
C         5.99915104303800   -2.52752992240827    7.78849946658121
H         5.69144427051316   -3.15913042450249    8.60882485748393
C         7.08493797073410   -2.88737760563197    7.00692279793494
H         7.62330007765663   -3.79988786408410    7.21606810025700
C         7.48305842011304   -2.07180801308343    5.95931798120507
H         8.33556203872975   -2.34102209456663    5.35344074350044
C         6.79229467451653   -0.90831057610821    5.68278319768535
H         7.10397986733184   -0.27771702318783    4.86241739315642
C         4.72922533775415    3.47992349878680    0.92952296464765
C         3.45986263058010    5.88066972800585    2.07163397500501
C         3.26609921173333    7.43605832461259    2.12313489534328
F         4.21768371653985    8.06915998251890    1.40903052345221
F         3.35981864357879    7.91270758673243    3.37735829385380
F         2.08575768830777    7.83765175238433    1.64266021233760
C         1.22035070591296    2.37934715390565    1.39946709539133
C        -0.01304701291185    1.76527777571422    1.61547123960366
H        -0.41329664322815    1.69398163542890    2.61779411471814
C        -0.72998734891283    1.25298149450615    0.55086376584503
H        -1.68421268372728    0.77769263855488    0.72712946485214
C        -0.23149293823523    1.35338367030737   -0.73876734048457
H        -0.79417002012364    0.94939831255599   -1.56760743799346
C         0.98043574069598    1.98384024346461   -0.96096631507658
H         1.36410175678658    2.08056877588357   -1.96590423315699
C         1.70175474642093    2.49717061688327    0.10326978328769
H         2.62904648526046    3.01937370766382   -0.06389083361072
C         1.69273190925755    1.89354406090654    4.12508991359567
C         1.68070036299357    0.53004304266779    3.83749857238838
H         1.83508031477960    0.19785209658235    2.82031789192325
C         1.46840038075417   -0.40039626256043    4.83754350943636
H         1.45834131945905   -1.45247087207743    4.59304842100010
C         1.28597869090670    0.01219225296536    6.14675253660575
H         1.13789315075934   -0.71534837003545    6.93106489633362
C         1.28682579785652    1.36413787655824    6.44277283156941
H         1.13798554820656    1.69805991845090    7.45962446432510
C         1.48277262611155    2.29776514129696    5.44006835856776
H         1.46415697442148    3.34799617515181    5.69204159690576
C         1.13002739806184    4.52277947685892    3.24937332783894
C         1.52735913716022    5.33362121603591    4.30903974775785
H         2.43081179925852    5.10495658107271    4.85649476480809
C         0.79823541575888    6.45782422688010    4.65145060738899
H         1.12852302381377    7.07769000653196    5.47222067834953
C        -0.33324241704043    6.79549257187296    3.92972361023392
H        -0.89728826003429    7.67945801518708    4.18700418770738
C        -0.72357808869033    6.00540092045920    2.86213775673226
H        -1.59358458745204    6.27408972611751    2.28137170536600
C         0.00232454635058    4.87943623846182    2.51768774138160
H        -0.29978959085096    4.29339029731534    1.66390561853655
C         7.74110784534355    4.36311747156277    1.73979742943586
C         7.11247107846839    5.51990955633330    1.28508796819374
H         6.12397306250663    5.76618720667287    1.64655953823004
C         7.74253604910051    6.35168450017410    0.37849217532939
H         7.24112792611252    7.24386113394594    0.03436629342960
C         9.00764459038829    6.03249098273499   -0.08683950611158
H         9.49987048744686    6.67568679676084   -0.80106461412870
C         9.63952065679999    4.88484264531101    0.36266266300827
H        10.62600593589012    4.63378744146225    0.00080551734657
C         9.01429093804633    4.05143709791447    1.27318161799855
H         9.51586353130491    3.15718847913708    1.61383224199569
C         7.84125744578522    1.78893175108487    2.85312849013856
C         7.49655105225432    0.90546078026511    1.83318144727088
H         6.68277453908097    1.16645915619794    1.17039086093500
C         8.18442163774407   -0.28182380736240    1.67023902276612
H         7.89877869423206   -0.96491598039013    0.88459684012109
C         9.23751652440821   -0.59207693671825    2.51593213016917
H         9.77096940147585   -1.52369156760902    2.39835847593843
C         9.61725382298956    0.30399268224915    3.50125485295295
H        10.45492774565763    0.07889655964259    4.14537535592286
C         8.92949423229667    1.49426306414032    3.66881602396823
H         9.25003749114989    2.19228905464263    4.42872622685106
C         7.36643381943094    4.06993929312925    4.53723668216259
C         7.57493367781857    5.44270145451747    4.63470399357806
H         7.52735899980172    6.05751937819039    3.74739146349963
C         7.83482224505043    6.02229429871103    5.86346094311527
H         7.99366854119669    7.08855033813006    5.92788722250881
C         7.88476375382886    5.24340672245025    7.00764046689532
H         8.08314636487590    5.69904683861866    7.96617671831113
C         7.67576362132806    3.87716284925104    6.92061133999454
H         7.70506805534991    3.26238272734431    7.80844423947536
C         7.40966872665588    3.29408315801049    5.69578179462260
H         7.23658036805044    2.22685648064492    5.64154515096336

