75
CSD_code = MANSEZ | q = 0 | S = 0 | Stoichiometry = C37H31N2OPRuS2 | MND = 6
Ru        8.01669670427308    3.70259137525887    4.03642380867092
P         8.68630746794853    2.20483007425231    2.44878307804291
S         5.95162151833814    2.68449431564360    5.12297794931430
S         7.07015135780451    5.30754752713438    5.68470186609517
O         9.60798234246055    2.67381118379075    6.34601851928849
N         4.89677586277717    4.35828170489721    6.89235375193069
N         6.87475535536780    4.68016194361965    2.67132609971853
C         7.41565275753378    5.81781539738967    2.18006655884517
C         6.79234833174810    6.48446803518557    1.11815359006547
H         7.28503357898772    7.31882664241685    0.64796054210791
C         5.57956793137308    6.03781578245272    0.63883054393396
H         5.09256698838647    6.54830910504377   -0.17882221844563
C         5.00545517864070    4.91054229698541    1.21108315199053
H         4.05614134221333    4.52686058254858    0.87376433425651
C         5.70726318024796    4.25464466806452    2.20217540808496
H         5.31724931677542    3.33811661764093    2.63363127002260
C         8.72472746986742    6.14394207848587    2.72256265439346
C         9.35037811203835    5.08916453239529    3.39128531412257
C        10.71757571475035    5.20230655602910    3.69746254374105
H        11.22138408413533    4.37544633575655    4.18153764188055
C        11.42931473673234    6.31801876790890    3.35525183587107
H        12.49475733637674    6.36743690300692    3.53535613596038
C        10.78018468116537    7.45714993613754    2.83123830359108
C        11.47673969118178    8.66441945978050    2.62784911504263
H        12.54221730540344    8.68082910343719    2.81021341242046
C        10.81904068595569    9.80014902673516    2.24433477157417
H        11.35755324263565   10.72462706919285    2.09502383323905
C         9.42714007203774    9.77529258766311    2.09511403882609
H         8.90042696311460   10.69157619028235    1.86877647654508
C         8.72871770260320    8.60761507124928    2.25212065194337
H         7.65090385351342    8.62905186699169    2.19948059042101
C         9.38612756601796    7.39987774624751    2.56223687836061
C         9.04674622145445    3.01974959686535    5.40187192240632
C         5.86601817703752    4.13867897969473    5.99891553437135
C         3.86700645353209    3.38988484723545    7.17342643093495
H         4.00801108672476    2.51185775642137    6.54751800277593
H         2.88483652825056    3.82417045694465    6.97203894455252
H         3.91244900017119    3.09336418348835    8.22399576236222
C         4.81250335952631    5.57484123662795    7.66014473289621
H         5.66612481144106    6.21077098585503    7.43837476894914
H         4.80728563556403    5.33752785199467    8.72630165144747
H         3.89203473193013    6.11017343030496    7.41355426413773
C         7.96186332711445    2.55940267331164    0.81747579443173
C         8.41248979765269    3.69044601443456    0.13714133040499
H         9.23069282072043    4.26604434505004    0.55415705014855
C         7.81465983931077    4.07188483819697   -1.04855339728116
H         8.17277438602624    4.94439350537134   -1.57557391370522
C         6.75115012150074    3.34116651396296   -1.55550759614350
H         6.28314606736324    3.64130941407002   -2.48148772580124
C         6.28265261137380    2.23310277219382   -0.86977717347502
H         5.44555317184182    1.67138174038959   -1.25834558678102
C         6.87907828603483    1.84469852267948    0.31710548676206
H         6.50661626823077    0.98643992670007    0.85974024969250
C         8.36507900566344    0.42058152075577    2.66538345270819
C         8.69295107203076   -0.48051287739021    1.65440334195077
H         9.10701594761216   -0.11451394572545    0.72449796193855
C         8.48651948315469   -1.83286095621977    1.84437599135307
H         8.73656041361998   -2.53106272435332    1.05863153457606
C         7.96349417566066   -2.29575907363497    3.04296810145596
H         7.80478510612293   -3.35449207144904    3.18698432447340
C         7.64940557410674   -1.40390172116747    4.05388956644672
H         7.24657773503713   -1.76394790708010    4.98897110525722
C         7.85227082200121   -0.04711371803007    3.86749164425261
H         7.60931538100068    0.66046471868571    4.65021060450355
C        10.47523950385138    2.06370313888926    2.08995904988927
C        11.29334751323628    1.84529023146362    3.19542763701553
H        10.84048971697250    1.80683832560572    4.17733868791458
C        12.65530946136608    1.67574969236381    3.04015377108017
H        13.28146939349115    1.51122924634153    3.90473822919684
C        13.21570582924953    1.71798566208108    1.77329113851458
H        14.28099712240183    1.59275634076976    1.64731410356245
C        12.40548644780360    1.91283771164132    0.66843283089036
H        12.83783011653164    1.93295042118629   -0.32167315396413
C        11.03908496521598    2.07854876847382    0.82030960613190
H        10.41981407881336    2.21891914135227   -0.05408851402838

