46
CSD_code = MANSEA | q = -1 | S = 0 | Stoichiometry = C17H20Cl5N2OPt(1-) | MND = 6
Pt        9.44109782360183    7.40507411746970    5.91747340391265
Cl        8.41851575964201    8.49196534242319    4.17549335461016
Cl       11.40305151514908    7.25558344105310    4.61177717407498
Cl        7.48839223650333    7.59161344506552    7.24051225674946
Cl       10.22955084694733    9.43494886216995    6.85850069657363
Cl        8.70883533747349    5.31721144591048    5.10221478431169
O        11.56311035976097    5.73379242968569    9.32589364272935
N        10.26685564482802    6.51762427807858    7.61590080678816
H         9.66206843742236    6.81522287012951    8.39117391269266
N        10.53346583879397    6.27231991636319   10.18356356816533
C        11.30360985716626    5.91091038861908    8.01726166039664
C        12.32832940654481    5.28981729207118    7.13311530793284
H        13.23424163527050    5.11236683458613    7.71515406081324
H        12.53095043502264    5.97291342696448    6.30452436258856
C        11.78264778457184    3.97665616906896    6.56430026800509
H        11.54527978252801    3.27612296545423    7.36226754982835
H        12.52322359404034    3.53161310365595    5.90569680330290
H        10.87897031628541    4.17173136404175    5.99209836874836
C         9.91749099220926    5.18457692158617   10.92151483990630
H         9.15522356747393    5.64764323058632   11.55385745511184
H        10.64757873670501    4.66123008648205   11.56028517661357
C         9.28940090378238    4.23851802834143    9.93220152039614
C         8.22841418679744    4.67584606554775    9.14718648515137
H         7.81533663336474    5.66213909807357    9.29894303335889
C         7.71874937592482    3.86715035018901    8.14865817118244
H         6.92317927234146    4.23519601021271    7.52158446410836
C         8.25160079818885    2.60643710724173    7.93788659488856
H         7.86536633543054    1.98182464591878    7.14668444208487
C         9.29019381360592    2.15531084252025    8.73319665279697
H         9.70934959128457    1.17120064150976    8.57336242648349
C         9.81371973935390    2.97201673988897    9.72180533491969
H        10.64389464818142    2.62721674673090   10.32482790809149
C        11.05497829872640    7.36195654804298   10.98772081668675
H        11.73067997087113    7.93620621934629   10.34841699655322
H        11.61431276300564    7.00164573216213   11.86598762667696
C         9.88923242274670    8.22492336051455   11.39573218697299
C         9.44581464425368    8.25455895873102   12.71037567311001
H         9.96638943339734    7.68183280119733   13.46713324832963
C         8.34359026943808    9.01595755700195   13.06026419136113
H         8.00826731828619    9.03523472880430   14.08821973456549
C         7.66940698599569    9.74250240235663   12.09410852493422
H         6.80332898324473   10.32851825411848   12.36711483322348
C         8.10834028204612    9.71670670673125   10.78057276671911
H         7.58866899556702   10.27551580923160   10.01833536162953
C         9.21596420755436    8.96632177025622   10.43131091166446
H         9.55593021868068    8.96772494385578    9.40619064023938

