84
CSD_code = MANTIE | q = 0 | S = 0 | Stoichiometry = C42H33BrN3OOsPS2 | MND = 6
Os       12.67675762327822   14.47932293462032   10.01497107908603
Br        9.44754883927878   12.30420129092933    4.53736657939712
P        11.68435066928058   16.57601972605005    9.89489402243686
S        13.56956500401845   12.12864779635149   10.36799235853016
S        13.94422404438997   14.19581299909968   12.37948183759056
O        15.44192300551377   15.15417319043804    9.01237431955841
C        11.84365061723000   13.94481330499378    8.22995024488574
C        10.74694450226410   13.06883259443258    8.40364231458018
C        10.02604016213017   12.59398636844090    7.30512791655848
H         9.14835615691949   11.98093420063259    7.43693195694750
C        10.43720633655566   12.94566478514792    6.04010300742943
C        11.53794980215470   13.76504571991696    5.83240354620727
H        11.84169373042458   14.02061992698069    4.82842057705826
C        12.22216810793283   14.26075121131228    6.92612949363054
H        13.06407804518784   14.91832524505809    6.75803533033984
N        10.87198615455008   13.67332359170067   10.67471525032618
C        10.34090785337718   12.83304263587715    9.78081407028209
C         9.40460999556720   11.84199647006213   10.21368588173818
N         8.82318016826139   11.92676624523937   11.38248787631615
C         9.19221208440637   12.91565707754969   12.21742523819196
C         8.52547335723911   13.08021029502151   13.44354127147411
H         7.67531319057595   12.44772739531168   13.64511912668101
C         8.96692858358957   14.01130309472036   14.34456681793302
H         8.46020556402768   14.13346322856751   15.29040633710805
C        10.08114603771760   14.80893533255070   14.05199681610685
H        10.41795703502212   15.53922945783940   14.77261749033817
C        10.73891524212590   14.68395059047236   12.85781728968597
H        11.58306977517657   15.32069489283254   12.62597077560420
C        10.30744299914850   13.74282732446332   11.90673764640858
C         9.13302972175319   10.63187891314746    9.42853260553526
C        10.18244106928769    9.94730060982067    8.81625628875796
H        11.19119309731775   10.32712644688099    8.89771164122547
C         9.93118069232283    8.78305563483529    8.11666161891436
H        10.74668436179958    8.25667983669068    7.64331947503888
C         8.63832779624378    8.29259125325171    8.01980019391744
H         8.44503841779019    7.38809981368816    7.46250383023668
C         7.59628300100322    8.95947452041383    8.64279206576560
H         6.58975233862536    8.57376864281114    8.57452684041803
C         7.84163740991846   10.11911687726289    9.35444974817312
H         7.04044202973089   10.64756229752548    9.84858276408300
C        14.36338463785696   14.95952923472658    9.37594502146768
N        14.81190889960907   11.71003669802672   12.68014863202206
C        14.17996536221271   12.58847819536098   11.89662939374617
C        15.31815633826859   12.05903061815644   13.98400197138291
H        15.05484190465141   13.08767685299085   14.21930239804317
H        16.40577636105184   11.95472232116854   14.00222155569186
H        14.88682509437500   11.39489301902873   14.73653024623603
C        15.04313790410583   10.34246497414192   12.28829871761918
H        14.74887811559373   10.19748020169020   11.25149403660303
H        14.46402775691004    9.66541413012499   12.92201200487375
H        16.10377960837302   10.10651580073543   12.39701689943686
C         9.90097303738759   16.49699321345833   10.26837039594244
C         9.09567192294472   15.77896310629477    9.38410957472312
H         9.52314539493152   15.41857496753503    8.45688126631834
C         7.77498687757669   15.52060604878513    9.69501938508895
H         7.16077412229434   14.95720661037091    9.00759025643848
C         7.24456143444199   15.97347847128134   10.89368672652454
H         6.21605764749173   15.76004786910982   11.14343376541250
C         8.03570783275540   16.69546782893158   11.77027832422141
H         7.62388373246325   17.04842491851505   12.70426902548778
C         9.36193336582955   16.95197795338432   11.46591965026551
H         9.97898686751245   17.50368782762469   12.16107454151978
C        12.27994295109619   17.95885508285547   10.92805531762570
C        11.65328222574157   19.20146675253924   10.86854427094552
H        10.79738502390517   19.33888205755867   10.22166958178261
C        12.12875145368536   20.24808293165878   11.63463414964296
H        11.64102980132975   21.21105283543022   11.59212602404853
C        13.23276677945181   20.06545244169020   12.45459493297811
H        13.60060922690980   20.88724589243161   13.05110574742645
C        13.86538768610765   18.83504080766367   12.50488187602890
H        14.72878170852655   18.69393788446432   13.13774737060210
C        13.39186564319299   17.78211640508835   11.74079739676586
H        13.88121585041153   16.81676460505907   11.76895958988957
C        11.73054928751096   17.42297312904616    8.27237637857125
C        12.99118434762343   17.56250317067328    7.69779389312130
H        13.84609996677963   17.14914696089675    8.21579782727541
C        13.14279083870018   18.21577768585118    6.49027861450942
H        14.12389309197141   18.31749771537108    6.05082918470981
C        12.03306138541454   18.73685298844802    5.84340377008343
H        12.14608063309738   19.24153688305668    4.89552146882819
C        10.77958578466947   18.61330052493722    6.41675648923764
H         9.91448845102244   19.02552864705837    5.91830268045457
C        10.62431667212927   17.96451218149005    7.63038308592953
H         9.64055234732744   17.88326778266855    8.06984301650192

