67
CSD_code = MANTOL | q = 0 | S = 0 | Stoichiometry = C35H25F2IrN2O2 | MND = 6
Ir        6.29055441269896    6.33153062333471    3.53617293445243
F         2.11032258934166    9.50035567996959    4.66362502271379
F         6.34645106005309    7.74033792838710    8.71402722735916
O         5.77757028043103    5.20914485022901    1.68020651703178
O         8.36839915757225    5.72399091599052    3.00423333188607
N         6.10392834634016    4.57106996943799    4.45280216323579
N         6.63744233377774    7.91649500476589    2.37727365823898
C         5.09979717719578    3.75520691341050    4.03061287727635
C         7.18466020436870    4.04265026065406    4.99948075156715
C         7.40678690608496    2.66625537703909    5.07968844318718
C         6.49087799532138    1.81853615384779    4.51710419009123
C         5.30078941115869    2.34673773877513    3.97712090805473
C         4.33133307593095    1.52186176425545    3.37516747807085
C         3.19405330135694    2.07640597936769    2.85730641905067
C         2.94560898878733    3.44208215173237    3.01036977555260
C         3.84160247194415    4.29390274809951    3.63046136215382
C         3.44627555843547    5.68218987239884    3.91899186166270
C         2.09736934254292    5.92777182423791    4.19801481436685
C         1.63307091727382    7.20039992893019    4.45581903714022
C         2.54531313973181    8.23899868064963    4.43345578252443
C         3.88815522129516    8.02494888297855    4.19803653587554
C         4.37028441917864    6.74050964300447    3.94890697398758
C         7.88381590048714    8.46037561042418    2.43282462952125
C         5.91990671150982    8.04661563102629    1.27545157694431
C         6.41178566696103    8.63194406223127    0.10672917762741
C         7.71792586141557    9.04072109731813    0.07546981246228
C         8.49311920548887    8.96803034429467    1.25056133983334
C         9.84492282684887    9.36150224422070    1.27160980390403
C        10.56139656296854    9.26980510177890    2.43241843187334
C         9.93282772951644    8.88134931514656    3.61745281760628
C         8.59809870283944    8.52226045875934    3.66535469343482
C         7.95153866857673    8.29201536928287    4.96760719357619
C         8.40604384616471    9.04021565769416    6.05906174767443
C         7.87512425908145    8.87265168262491    7.32065054492064
C         6.86952219467359    7.93739474921111    7.48078514353228
C         6.37420045007322    7.21002454458450    6.41781733202396
C         6.89510615075161    7.38083128465847    5.13569983713889
C         6.55281293829096    4.58673047630379    0.91734865289606
C         7.94629043694410    4.51081476459791    1.00562985860190
C         8.74920996518627    5.08096941129916    1.99836053342702
C         5.91418697648411    3.84174548994819   -0.24264612209072
C        10.24773732616585    4.88487508492423    1.84234044422963
H         7.93028223050430    4.73597334338006    5.36315277051932
H         8.31284532326970    2.29913939877708    5.53492331217839
H         6.65838081701683    0.75206953048868    4.47908510829133
H         4.51166021141691    0.45840452987743    3.32429878498538
H         2.46512192369612    1.45846717783842    2.35402333604035
H         2.02177952926494    3.84192340523880    2.62175015190857
H         1.39957287090048    5.10498045071723    4.24352948118196
H         0.59455849841519    7.39067362274264    4.67505968107182
H         4.55681193998504    8.87256761680118    4.22513704418085
H         4.91829207242773    7.64026604445878    1.30040124012898
H         5.77506840667614    8.70510603775965   -0.76056757159417
H         8.16865541804463    9.42045846226390   -0.82978917698621
H        10.29672994626884    9.72138531073891    0.35923405645901
H        11.61036344218836    9.52650946394409    2.44866784514024
H        10.51794085637398    8.85478344535190    4.52372344540130
H         9.17034900914657    9.78947951918821    5.91596163541416
H         8.22124233152980    9.45118748417553    8.16224408401221
H         5.56618300809447    6.51706902474464    6.60008790112153
H         8.45316413040959    3.95593148621157    0.22967418205769
H         6.25980341869515    4.25602058550496   -1.18765136381884
H         6.19006746552178    2.79003788248027   -0.20820874220001
H         4.83244580528920    3.93291398992635   -0.18294896112637
H        10.76752955345498    5.38834718054141    2.65389858748420
H        10.57977855866720    5.29709329078150    0.89169219075297
H        10.49055454148382    3.82425644423957    1.85971546277876

