47
CSD_code = MANTAY | q = 1 | S = 0 | Stoichiometry = C22H12N2O4ReS6(1+) | MND = 6
Re        5.60169340622128   13.01517684806641   41.82010413694002
S         5.32509395552470    7.58944948610783   44.30794551845715
S         7.96336636419137    6.30029122777909   43.83317577057421
S         4.50473342165896    5.16710454034556   46.27391941778031
S         7.12627612324046    3.88347415172875   45.82879110827607
S         3.46007787731259    3.07912301029216   48.07379455888807
S         6.57260372942073    1.50788330078402   47.48464287369121
N         5.93017974358191   13.57534528326055   39.71519740384904
N         6.59975922915344   11.24906211860968   40.90700152079465
O         8.49432371637588   14.04415359791292   42.32671566417012
O         5.44415878528142   11.90334752403442   44.71917978554015
O         4.30472324494356   15.72257029517704   42.61774199451011
O         2.89212085332038   11.78535397936752   40.91619252803209
C         4.77352355598342   14.71997704788245   42.35801204362087
C         3.85910524105903   12.25122762103253   41.27538811269589
C         5.47422208233177   12.31395206848254   43.65849614646116
C         7.43001395247817   13.69020788896111   42.17862841426810
C         5.55903734260413   14.70231510093342   39.11381160571683
H         5.01406476339195   15.41760902396310   39.71618501989859
C         5.83937444748330   14.97777661200042   37.78759432336665
H         5.51314278111109   15.90763226355003   37.35285239089497
C         6.54462424106844   14.03982066978293   37.03677604373088
H         6.77990037643625   14.22887883828652   36.00152024097861
C         6.93256597373860   12.86638312337696   37.64394315896920
H         7.47727867287578   12.10840024722524   37.10372347814592
C         6.61306820406501   12.64874496359024   38.99211769420931
C         6.96272723370912   11.43844271368039   39.66596946644200
H         7.48627950341839   10.66764155785805   39.11080850461867
C         6.95444845057820   10.08077322790366   41.56413863439933
C         8.19252944917368    9.45584363008311   41.34971737330406
H         8.91289859631988    9.90137205075363   40.68072791875841
C         8.53152674363632    8.31257391398709   42.03631863355409
H         9.49285897665818    7.84823602930273   41.88708341605921
C         7.63229997839792    7.74822113797664   42.93712546087113
C         6.39232967778937    8.36410561672002   43.15658552226792
C         6.05923906268952    9.52102261482764   42.48434410704390
H         5.09061820638933    9.97236467275473   42.64390012159601
C         6.41006670784535    6.24243357544858   44.64551876748551
C         6.06162751531114    5.22831126122904   45.47442217202312
C         5.98385332017749    3.03692273117885   46.86470414718022
C         4.79425252132850    3.63162732119570   47.08209962618665
C         4.28510057789416    1.75742361862926   49.02076569872340
H         4.95819093653090    2.21671001808122   49.74461114398985
H         3.47494270262810    1.25381175950443   49.54792067548753
C         5.01776643427769    0.79347349872998   48.11419367635883
H         4.40283621357741    0.49714793878915   47.26443182955495
H         5.32907510680298   -0.09491972116923   48.66346214964175

