85
CSD_code = MAPJIW | q = 0 | S = 0 | Stoichiometry = C40H42N2Zr | MND = 5
Zr        4.66017990884211    9.37073588787030    1.66619586278095
N         5.56342958150536    8.20923704877908    3.27700642087710
C         5.65454146647461    7.97576778838899    5.75415781702170
N         3.15749468997584    7.81732057289129    2.12351333164913
C         4.92729344605256    8.11947806701941    4.43713862656740
C         3.53718373261021    7.99816985776242    4.47012563131964
C         2.73215797661700    7.68563972118254    3.36295827557783
C         1.40211716442356    7.03126293409280    3.64831884134017
C         6.92938435005871    7.96236342240562    3.10270397191861
C         7.26415150875678    7.11027931972866    2.04011198267587
C         8.58200084306607    6.81715498795552    1.75163882202228
C         9.61794085508220    7.36778623873842    2.49881983791597
C         9.28897686901578    8.21775080273918    3.54775502310131
C         7.97329391428092    8.51260084743527    3.85506663055866
C        11.05007491701151    7.08325510191872    2.16520596223983
C         2.44984822477640    7.16985151165251    1.08917238008742
C         2.80577922539736    5.86589960019579    0.74085248091156
C         2.12286660947538    5.19361748594042   -0.25409249439763
C         1.05641932402588    5.78886481202848   -0.91795556583366
C         0.70480651707614    7.08655156228490   -0.56841533982378
C         1.39294941210463    7.77597959582653    0.41203632568858
C         0.32841994627422    5.06145942065224   -2.00711695270809
C         5.22820402354209    8.53806019598827   -0.34817800161002
C         4.20248645635592    9.10719543882935   -1.22865417527045
C         3.29900411279874    8.30945411469367   -1.94420376216646
C         2.32641564484968    8.86945831052999   -2.75025483489319
C         2.22418264445154   10.24420321770417   -2.87809145145915
C         3.12693262280723   11.05479412003192   -2.20385954490680
C         4.10050769668171   10.50186042540059   -1.39701697630978
C         3.03376547406386   10.95137703834449    1.62465465887050
C         2.49536207360934   10.81942370531890    2.97818937377943
C         1.18801212266790   10.36801124554975    3.22441457386505
C         0.69627180532523   10.22570229106808    4.50645046268987
C         1.48584575165069   10.53497845031693    5.60135647150417
C         2.77692036657971   10.99671653305640    5.38976883083618
C         3.27654649815838   11.13446869564820    4.11069786160192
C         6.21677651312088   11.00827031429191    2.08943858324272
C         7.00067053650961   11.21206163680939    0.87076582629821
C         6.73569361479259   12.28062316929529   -0.00243847421364
C         7.45529180164526   12.45643864768687   -1.16769932382108
C         8.47669160619006   11.58189387216756   -1.50175748161166
C         8.77581540328322   10.53501276455543   -0.64263002802401
C         8.05709097519107   10.35262398275855    0.52120787673632
H         5.00579713647925    7.52239159726376    6.49822225923752
H         5.95492104031399    8.95640018354654    6.12251734502755
H         6.54574417427722    7.36091097421216    5.63923521295561
H         3.07179716745584    7.93312624020904    5.44145101498805
H         1.08412255333921    7.23334237975208    4.66642178702280
H         1.49577690466975    5.95229743921581    3.51767153332933
H         0.64033963941681    7.38373977216212    2.95687709472797
H         6.45782498597160    6.66062414583806    1.46826496308792
H         8.81276485965271    6.15235810111973    0.93146914109426
H        10.07936825640361    8.66357006551419    4.13487578627745
H         7.76437997147086    9.19919945836649    4.66217007576493
H        11.13630814444624    6.18643670478918    1.55662304739814
H        11.64129526018267    6.95529359190115    3.06972264355292
H        11.47362766737257    7.91729291796132    1.60458301214596
H         3.62296239526139    5.38827570877208    1.26704420049102
H         2.41598736345968    4.18590983157407   -0.51404299706182
H        -0.11961928526419    7.56818781603670   -1.07402155288128
H         1.11058102022999    8.78867485196636    0.66225370808277
H         0.34805545398300    3.98691922264602   -1.83933409063845
H         0.80395654762525    5.26021640333295   -2.96850893462189
H        -0.70600914996631    5.39109020248777   -2.07019801001178
H         6.21802367862579    8.96554045097944   -0.56812020936686
H         5.26500169038267    7.44414100656164   -0.45700874185070
H         3.37860434578512    7.23222020399627   -1.87621530722861
H         1.64863566494084    8.22651048572403   -3.29424982116914
H         1.46401238414185   10.68033298186296   -3.50902647980696
H         3.07155849636648   12.12864242395840   -2.31732362722073
H         4.83187914539519   11.14338079089095   -0.91226415833652
H         3.54266735477005   11.91570302444513    1.48601516080296
H         2.25261398291614   10.84561103802382    0.86025277325429
H         0.53764522678244   10.15568445530914    2.38492677445776
H        -0.31909373271320    9.88402591341933    4.65433465054539
H         1.09839029815010   10.43132891175475    6.60392241221985
H         3.39679618113627   11.25693925676092    6.23723506269348
H         4.28229985073348   11.52579827152680    3.97584819512923
H         5.77519556315139   11.96672922471755    2.39923521765603
H         6.86423040377452   10.64655995608622    2.90108238012361
H         5.95839631677656   12.99147390581893    0.25630156718909
H         7.22475134321867   13.28810329900184   -1.81892885850325
H         9.04127190881459   11.72210557879546   -2.41119521100737
H         9.58406978034967    9.85729183493023   -0.88216293362377
H         8.31806978243251    9.54066461921403    1.18918557749455

