52
CSD_code = MAPRUS | q = -1 | S = 0 | Stoichiometry = C18H24O6PSi2W(1-) | MND = 6
C        13.34233176361313   -1.06974166948802    7.93517219638546
H        14.02361099743840   -0.81597421362778    8.75031818737707
C        15.37841643655601   -3.36501534715843    7.61798132140464
H        15.55795378370218   -4.41128264954331    7.38804146324038
H        15.83183856673229   -3.15663831635913    8.58242223284502
H        15.89915851372551   -2.76367862894648    6.87932263478506
C        12.73935731535019   -3.52085296738606    5.98562099826074
H        12.98060428891843   -2.82701576330079    5.18779053750813
H        11.65924310105035   -3.58568609585267    6.05248745367162
H        13.11268344714667   -4.50018332628778    5.70089211433314
C        12.74227188987095   -4.03063277006856    9.02019527274110
H        11.66511079528974   -3.91199863628725    9.07257603878486
H        13.14866402438411   -3.77919435284095    9.99460455036742
H        12.94869180164387   -5.08148512735463    8.84078692066161
C        10.22417681419122   -1.30831323803456    7.43370536022365
H         9.25567174337529   -0.86170833913164    7.64148160163998
H        10.18620900917424   -2.34088966848532    7.76464573578537
H        10.36993215709100   -1.30920306375012    6.36024530931294
C        11.33852931675254   -0.62941359387180   10.20204503768723
H        10.34430998027990   -0.30664760176162   10.49538095359121
H        12.05398066453331   -0.06790327388736   10.79352823468063
H        11.43879241972730   -1.67563250195789   10.46920359961259
C        11.33183839293375    1.52064095234127    8.02949250126243
H        12.04873376731177    1.91963984766751    7.31925567335915
H        11.43314836948059    2.08777712557022    8.95037803570267
H        10.33757642652099    1.70862000664274    7.63245452119873
C        12.45349769246811    0.43687102097350    4.46251427380888
C        11.17105664571253    0.84594350478678    4.08300513308550
H        10.37095366910602    0.76697783211827    4.80403298475246
C        10.94831976187639    1.35440639683645    2.82127806895069
H         9.95301521808777    1.67449640531657    2.54282044985675
C        11.99008428192694    1.46682214678989    1.91172681178047
H        11.81149123646829    1.87382313416411    0.92637684559100
C        13.26053557215744    1.05868314610759    2.28033322590991
H        14.08080535309693    1.14357633991956    1.58075682463107
C        13.49589654558371    0.54698619905955    3.54076179998910
H        14.48317904586357    0.21635846481233    3.83290224588364
C        16.45062152856027    3.36433043417895    7.19955702493391
C        14.46626686119422    1.85525302455277    8.60664015139123
C        14.03786630877659    2.81876653149206    5.87145283619476
C        16.39494067254408    1.53530074016348    5.14607305386737
C        16.64457312528869    0.51293607523616    7.79176022299521
O        12.61702608349048   -0.03402754921323    5.70264335332564
O        17.07916052914295    4.31551259770619    7.39133433074233
O        14.03237536960649    1.85163713940224    9.67390679092911
O        13.27537921152950    3.44456391988933    5.27611699512685
O        17.03717998797773    1.46469566271167    4.18989748125752
O        17.31053596517983   -0.23791159957757    8.36128479910344
P        14.12535372463328   -0.44361351659327    6.36796005787255
Si       13.51217595077508   -2.94462719153921    7.63398521234924
Si       11.61988658462297   -0.34810571318192    8.32531055761785
W        15.39048728753596    1.73595806704860    6.85153998163216

