79
CSD_code = MAPTUT | q = 0 | S = 0 | Stoichiometry = C40H30N4O2PtS2 | MND = 4
C         4.12263788141265    8.56631065245270    5.70871728561469
C         5.11794477797767    9.63969760176161    5.95048705137002
C         5.71121435160692   10.27477909544551    4.86157684568962
H         5.43380932132163    9.96748546437122    3.86446285018920
C         6.64096124491687   11.27620012340778    5.06494599297106
H         7.10030707501331   11.76634593927011    4.21895414623842
C         6.98471054840491   11.65131604639769    6.35412225069425
H         7.71088556859094   12.43543029438278    6.51234430680346
C         6.39616031694361   11.02208321928359    7.44027221129857
H         6.66323391349892   11.31708091225716    8.44455581664326
C         5.46473141741508   10.02021080912495    7.24443113870124
H         4.99427364802664    9.52520869446416    8.07896697832837
C         2.97816946503490    6.87314179769254    6.92922153899223
C         3.46527478837440    7.00955206818077    9.29403731218599
C         2.79866169013279    7.40231842166071   10.45038617284221
H         1.72198433884957    7.33093302423570   10.49525750006862
C         3.51320128306761    7.88476745227290   11.53134391418818
H         2.98789773124862    8.19167004468122   12.42351606923920
C         4.89322213316696    7.98051551080869   11.46972315276227
H         5.44831002315727    8.36208222215999   12.31339736228016
C         5.55814232741035    7.57988512877479   10.32233255808190
H         6.63494851749347    7.64284831978840   10.27057021538118
C         4.85273890059395    7.09007910601485    9.23889635555644
H         5.37084046818572    6.77098208764011    8.34887742503398
C         1.69337020237643    5.57313164232618    8.53553990380129
C         1.99806475035261    4.47856369431235    9.33597711630944
H         3.01439043007658    4.33279886651347    9.67098377522234
C         1.00315767940575    3.58668198529310    9.69198974228844
H         1.24589031847074    2.73443890862013   10.30894215714650
C        -0.29603319868664    3.78198690973324    9.25525598258381
H        -1.07041849231252    3.08225479569421    9.53121088341027
C        -0.60087583286150    4.87885818252089    8.46587571942185
H        -1.61438765074911    5.03960923571126    8.13058332119021
C         0.38601489823137    5.77820093104638    8.10966382538038
H         0.15063449816481    6.63710533457269    7.50004835737610
C         2.45577347077853    7.74553980841863    0.79614670293981
C         2.83039631170694    8.73064423457387   -0.24884133139590
C         3.59893652633549    9.83809405536716    0.10389127384408
H         3.89543586647179    9.95954587756453    1.13485966919938
C         3.96894396798095   10.75985215350875   -0.85625976556487
H         4.56464372150963   11.61757011016782   -0.57990178861989
C         3.57610775146197   10.58406854748714   -2.17372433964770
H         3.86691141755748   11.30471852269540   -2.92424203936993
C         2.80909573885845    9.48498370631298   -2.52832179924158
H         2.50198522083670    9.35000909802745   -3.55517286994979
C         2.43369455919511    8.55984766388796   -1.57298067922630
H         1.83626980638007    7.70073157477323   -1.83303094423182
C         1.24332277544882    5.70431430037551    0.98647370061350
C         0.65978537462183    4.84849718065408   -1.19499514363703
C         1.89200061545783    4.98252622804411   -1.82607313780627
H         2.78798830344777    5.07630365410115   -1.23377275238874
C         1.96147425690919    4.99640629063068   -3.20679343764115
H         2.92118732724203    5.10484977814165   -3.68977409096629
C         0.81183449756811    4.86514181124516   -3.96832464369978
H         0.87116067624016    4.87581702182145   -5.04619237257617
C        -0.41344127096952    4.71569236472427   -3.34064334460811
H        -1.31376292960945    4.61043017179860   -3.92747251862960
C        -0.49348432979259    4.70746590955313   -1.96040389973414
H        -1.44874804353205    4.59648307762537   -1.46902702665613
C        -0.29261157247641    3.82716647468278    0.76226564098993
C        -0.13948929625762    2.50462249981004    0.36298187612571
H         0.64493568079307    2.24776785175827   -0.33351410538102
C        -0.98653290122601    1.53163886326262    0.86081632780430
H        -0.86010861784812    0.50481402340893    0.55182878464222
C        -1.98788509439132    1.87087174703725    1.75474857295041
H        -2.64557848388863    1.10903284239219    2.14521686833180
C        -2.14624308420191    3.19068096091192    2.14457377819814
H        -2.93153039631443    3.46093925614369    2.83430753556071
C        -1.30806137149158    4.17052093079334    1.64753894932749
H        -1.43441477409359    5.20084115503503    1.94226295348454
N         3.75712629299671    7.92143480794463    6.80758430700476
N         2.71871595752859    6.49458963781646    8.20971105595326
N         1.73167498941666    6.73432944817272    0.33608846672553
N         0.56103690729369    4.81514878782161    0.21448273255744
O         3.71448580393761    8.41058098713559    4.53269037681765
O         2.85693754882357    7.96384168870471    1.96463200857343
Pt        2.56521501587061    6.90948577758559    3.70812021595790
S         2.31589438991922    5.84664615096446    5.71338875102981
S         1.35275205929618    5.28965844411671    2.65578424708716

