72
CSD_code = MAPVOQ | q = 1 | S = 0 | Stoichiometry = C32H32ClN4OPTc(1+) | MND = 6
Tc        5.46109024228822    8.32352250483533   12.81221399964805
Cl        4.57079850832369    9.67603112785156   11.11675409469061
N         4.36014931292947    6.99424497984559   12.82465381380508
O         3.59849083701498    6.11032419716922   12.97001198037340
N         6.78666515412581   10.00249375259589   13.23401710799653
C         8.09976474128509   10.08892255165374   13.04351701798610
H         8.57744493940502    9.22958050913449   12.59804708236587
C         8.84363744241057   11.20011865555044   13.39206905358837
H         9.90292298828376   11.21903889240920   13.19719407878195
C         8.19660821697012   12.27289276683895   13.98669913305138
H         8.73717534196776   13.16443777880240   14.26245993382408
C         6.84044281004025   12.16476032508289   14.23564785822543
H         6.29959406728660   12.96389958957441   14.71755149493917
C         6.16783926098491   11.01135433797579   13.84871111302943
C         4.69706446374541   10.86067351262604   14.07834186276907
H         4.37826895474410   11.51503361480293   14.89854315811402
H         4.19677402730224   11.18122545696859   13.15466742275594
N         4.31126199059294    9.46637877806923   14.30925311150060
C         4.71354331743985    8.99526615913087   15.64148273973239
H         4.00482042793457    8.21793678114381   15.95267433877489
H         4.66771926141871    9.80131948434782   16.38440981678968
C         6.07809012381046    8.35770397247761   15.67696628913403
C         6.81958438312424    8.35232698767479   16.85189020985725
H         6.43741484950030    8.85071364276681   17.72894869760475
C         8.04092418450447    7.70124436913324   16.88593514312906
H         8.62890847151676    7.68561629805829   17.78975013804765
C         8.48596423714855    7.07288695206175   15.73228752447281
H         9.42746739671112    6.54987341335002   15.70785808996103
C         7.69407958491676    7.12928581623288   14.60122398673746
H         8.00033553313865    6.65267139089830   13.68058815043514
N         6.51645360442012    7.75012100920432   14.56774213566237
C         2.85434799577881    9.31431166840006   14.10833661675391
H         2.60823458256046    8.25834886958893   14.24221912342695
H         2.64420741648204    9.57459152028374   13.06827870829448
C         1.97066167012221   10.14959434854991   15.02976503403405
H         2.16628857498864    9.94272831811326   16.07944036038122
H         0.93357039427270    9.89536124340165   14.83019040057513
H         2.08628934358627   11.21499558869038   14.85072372548574
P         6.69175309706025    7.29380146371325   10.96522922793242
C         7.19134285119046    5.54265741387464   11.08656828984150
C         6.79647779080513    4.76398510381266   12.16851297628980
H         6.21279850821314    5.21002545108026   12.96303559403129
C         7.13367356690197    3.42189034612402   12.21794708818938
H         6.82082242192851    2.82084397276572   13.05811386468393
C         7.86189601068358    2.85002584549018   11.18813240729264
H         8.12297871825908    1.80379541334049   11.22704487390367
C         8.24596392666890    3.61932223836611   10.10033464713088
H         8.80302028969503    3.17202223159258    9.29122860534073
C         7.90851226905188    4.95825699303189   10.04439407763191
H         8.19553515111213    5.55424544025441    9.18966403906278
C         8.21119476729533    8.16716221772192   10.48992825840969
C         9.48280126928542    7.66953653569624   10.75882176405127
H         9.59769491035286    6.69272694187103   11.20823713739377
C        10.60058597116456    8.42156480535311   10.43674856665671
H        11.58596918652616    8.02665187704100   10.63341936107518
C        10.45666858875877    9.67321907956432    9.86070350862115
H        11.33101974573912   10.25215509637011    9.60541177468340
C         9.19061533399371   10.18173570758613    9.60927891354947
H         9.07882161847557   11.15781273036274    9.16201693189879
C         8.07108008235959    9.43666662865600    9.92730406913447
H         7.07883276333440    9.82589871133400    9.74227867678467
C         5.76843632082008    7.20541305713935    9.39179881351255
C         6.36136003104167    7.44455677646249    8.15618908880484
H         7.39520970056869    7.75272823550802    8.09091020215503
C         5.61994908349984    7.30565841263574    6.99566165309551
H         6.08451261686382    7.50127456033371    6.04085547072040
C         4.29130430599017    6.92235483019872    7.05636018876948
H         3.71660214614276    6.82135891452417    6.14856279554941
C         3.70094703773487    6.67035917454709    8.28452873378898
H         2.66570056390754    6.37021862490886    8.33663709783601
C         4.43533038184705    6.80704751904953    9.44712166680022
H         3.97389031986612    6.61929648432488   10.40615508895078

