73
CSD_code = MAQBIR | q = 0 | S = 0 | Stoichiometry = C38H30NO2PPt | MND = 4
Pt       12.60639586690820   -0.96803119857318    2.57328746810048
P        12.30444518328341    0.90904116593469    1.37065265579610
O        13.67851120372845   -7.04997291159847    5.64243839423488
O        14.50781769676489   -5.63394308429903    7.16865105899543
N        12.94405629645103   -2.52290654902552    3.70717441553219
C        12.69756167604215   -3.74416469146989    3.20781055527955
C        13.00716956722649   -4.87164800829207    3.96506821116959
H        12.83075096976658   -5.86925455286162    3.59875916490178
C        13.57032182763841   -4.70664950524471    5.22582659793249
C        13.80718699408279   -3.42717605628608    5.71703879092662
H        14.24398432466276   -3.29936627679956    6.69229830199189
C        13.47855058675369   -2.33035405994959    4.92287540904227
C        13.90942071511924   -5.92339817379396    6.00958212683455
C        14.88258677240792   -6.74658478539923    7.98056538196774
H        13.97467705427700   -7.27073024265306    8.30056569276587
H        15.47776047597196   -7.44003656483456    7.37555723413627
C        15.67024971079622   -6.22842810079705    9.16872791785862
H        15.96530353013018   -7.06039962823666    9.80129984785982
H        15.06310038840880   -5.53859716055961    9.74887324408412
H        16.56109515486455   -5.70675834206564    8.82892086235828
C        13.32943696243318    0.01288487718654    4.26242856647444
C        13.51455956933739    1.35560459965426    4.58763770597246
H        13.28643519167594    2.12228581820179    3.85529089736996
C        13.99007064808248    1.76125947902184    5.82382278384580
H        14.11610074199485    2.81523594623271    6.03229753918113
C        14.30482737441176    0.82420392059346    6.79428870645534
H        14.67349734165739    1.14008380977717    7.75993147651664
C        14.14517743210501   -0.51860074517218    6.51800741943248
H        14.38983462673814   -1.24937166365699    7.27577607388033
C        13.66645851444189   -0.92300468880885    5.27301835675159
C        11.93694455190853   -2.44495698996915    1.29181460548425
C        11.33406185133124   -2.41824401408451    0.03624758524108
H        11.16346021008576   -1.47210881655388   -0.45937545649035
C        10.93362129112326   -3.57393485876173   -0.61716863066573
H        10.46978494396435   -3.50422708743928   -1.59209983929292
C        11.12276329924085   -4.81412032910194   -0.03063351004394
H        10.81256099134449   -5.71420442153340   -0.54214365212434
C        11.70581750662923   -4.89165752381810    1.21830600486517
H        11.84408111124632   -5.85715677328442    1.68329454506930
C        12.10393201817715   -3.72825791366390    1.87409042480197
C        11.58419288882720    1.02421553768474   -0.30578397721840
C        12.39622988008849    0.67557227414287   -1.38344865465557
H        13.41916689195174    0.37557992983837   -1.19646099492354
C        11.89549289163136    0.70101878555617   -2.67032883986217
H        12.52972152134247    0.43051280098845   -3.50172872179386
C        10.57628432370970    1.06623858635584   -2.89269218790665
H        10.18332536561390    1.08464122591353   -3.89846443694769
C         9.76098526998771    1.39864886019528   -1.82416993093086
H         8.73095408573328    1.67527416477963   -1.99605831786150
C        10.25880028806051    1.37475462555332   -0.53240370719741
H         9.61818893009524    1.62708131285937    0.30095453685464
C        13.82927196483378    1.86239923939472    1.09339789298047
C        13.86781938007842    3.04858122087381    0.36732696141439
H        12.96386621100304    3.44191746006572   -0.07746470288394
C        15.07067539713909    3.70857814529059    0.19159229139861
H        15.09929509900630    4.63456702316266   -0.36432511444386
C        16.23942609823601    3.18119165048979    0.71793879319360
H        17.17514650492194    3.70208764272991    0.57769696344044
C        16.21102705971568    1.97948699322585    1.40711671768219
H        17.12519032954564    1.55754406816090    1.79768579601284
C        15.00951541552335    1.32100396814663    1.59140496932932
H        14.96128579887521    0.37387438021878    2.12385452151141
C        11.14070598993658    1.92419151804373    2.33729404451404
C        10.26210228941505    1.17778804375894    3.12082547998670
H        10.34631257946588    0.08693497477393    3.10292809384150
C         9.31900525693516    1.80959826386419    3.90749373141821
H         8.63907186793216    1.22913292164286    4.51334292313113
C         9.25509632224458    3.19478993847431    3.92415894800513
H         8.52418215940094    3.69385047661222    4.54313663093104
C        10.13378544719029    3.94022723970558    3.15621670474279
H        10.08813422103472    5.01938568340634    3.17956443071430
C        11.07529341403655    3.31031091829938    2.35930706050021
H        11.76497668316370    3.89936622796812    1.77328716062363

