81
CSD_code = MAQDOZ | q = 1 | S = 0 | Stoichiometry = C39H36ClP4Pd(1+) | MND = 4
Pd        0.19842447589003    2.65503173491914    3.00246435582367
Cl       -0.85532554503117    1.85583720227929    1.18441304428525
P         1.60931558863002    0.90339556993643    2.92886776480937
P         3.52058959684675    2.24706280982060    4.90540830932854
P         1.19726096334353    3.79223631357702    4.64685256169035
P        -1.22245383090317    4.36569355936734    3.59685786643862
C         2.51968155670783    0.71521640049702    4.52462327601947
C         2.25640390868750    3.13727030881987    5.98419713638510
C        -0.32538447019924    4.67850011308755    5.21426997015805
C         0.51049459767905   -0.53401143349619    3.01687593198385
C         0.82575576450240   -1.77973375206221    2.49048471170574
C        -0.07433132211653   -2.82315518419134    2.62590440978328
C        -1.27614762003070   -2.62627636636983    3.28537521772928
C        -1.58878359861796   -1.38424891119777    3.81946471125241
C        -0.69846548449575   -0.33659944507513    3.68739069776258
C         2.80538203692673    0.63281002470603    1.61076953342777
C         4.17890284620573    0.73575335783308    1.80873386210169
C         5.03801778284692    0.53827263607230    0.74258114991875
C         4.53392395290941    0.24930559675726   -0.51564726946971
C         3.16421389065220    0.16804214789350   -0.71808717773076
C         2.29660458997295    0.36564174220481    0.33882993250155
C         4.62319701121621    1.59969474396844    6.20930618933260
C         5.96073029673898    1.97716777648776    6.15408633087389
C         6.85135238370719    1.53133918283293    7.11431623001620
C         6.40948995753066    0.70458582025825    8.13328189955374
C         5.07752612019248    0.32416171952089    8.19147715814922
C         4.18401718773205    0.76771316152629    7.23496550956634
C         2.20140716174882    5.05301467070830    3.83234002714031
C         2.66361355126893    4.76866407876746    2.54791559794943
C         3.41556978335892    5.70705295121782    1.86633177362073
C         3.69821222742989    6.92792107319393    2.45903137518785
C         3.24143066463995    7.20972103603961    3.73677559356409
C         2.49559307122957    6.27339865018716    4.42960175198992
C        -0.77308146477981    5.80843088640783    2.59698127618392
C        -0.09746457925723    5.56803845770990    1.40277229731726
C         0.30171134946929    6.63317346778331    0.61587406001434
C         0.02775363873670    7.92990190810527    1.01900704812754
C        -0.65754602367729    8.16738062382168    2.20108728878829
C        -1.06577209889236    7.10957699290608    2.99170151804528
C        -2.99807822403370    4.47512608972451    3.91306214953738
C        -3.54025944386724    5.23873814835699    4.94137154914982
C        -4.91442868071957    5.29945462768175    5.08440994801773
C        -5.73862789172385    4.60220802981355    4.21384706385029
C        -5.19519636775822    3.83249741694167    3.19692455629074
C        -3.82286473738959    3.76387418342067    3.04430644391976
H         1.77398857595039    0.51187772329313    5.30335527204715
H         3.19872060734502   -0.14069856268452    4.44466763768763
H         1.71877216739448    2.48387656706792    6.67692805769574
H         2.74833366072326    3.95227429440405    6.52383083190983
H        -0.81092972019598    4.10259212622177    6.01148654702795
H        -0.20515240648838    5.72102684828287    5.51917591254750
H         1.76109222402033   -1.92390251847014    1.96762883490578
H         0.16157312623307   -3.79036180263149    2.20915113669761
H        -1.97771409462578   -3.44084588749715    3.37855577792766
H        -2.53010917499105   -1.23546757409884    4.32683928530343
H        -0.94831138239252    0.65972849998009    4.09133185693227
H         4.57791526498314    0.97173792801922    2.78809904291538
H         6.10429832973861    0.61061097861044    0.89468560987332
H         5.21034800537793    0.09290818442770   -1.34184996015131
H         2.77310056039163   -0.04828071037863   -1.70044605466455
H         1.22509146334335    0.31890934923064    0.19447862896613
H         6.29419022196449    2.62229150183588    5.35264404875830
H         7.88815608276443    1.82717982912345    7.06677947336069
H         7.10158719599152    0.35402934060555    8.88323726238974
H         4.73451329213760   -0.32138320947576    8.98606151282692
H         3.14866822557735    0.46168054628084    7.28964537567900
H         2.43115012555587    3.80159992488689    2.08752855834108
H         3.77879715823513    5.48926019713980    0.87374319735731
H         4.27934241698282    7.66317457196640    1.92425161509020
H         3.46854660993040    8.16037447674464    4.19460768269848
H         2.14441665684193    6.48802075072274    5.43023366518438
H         0.09829921965213    4.53919137605701    1.08716946362725
H         0.82186956688082    6.45254194519457   -0.31231732967130
H         0.34000784967866    8.76110315006434    0.40565526761068
H        -0.87854029143869    9.17989545062795    2.50292848257869
H        -1.61466084059382    7.28941845703836    3.90579564080380
H        -2.89666703312924    5.77378531608914    5.62583138905513
H        -5.34451539828156    5.89053626411663    5.87864403575071
H        -6.80977019782036    4.65565329918045    4.33387576834185
H        -5.84017647926984    3.28606703289691    2.52645015426770
H        -3.37559616184544    3.16131421238348    2.26251168622809

