58
CSD_code = MAQFES | q = 1 | S = 0 | Stoichiometry = C16H34ClIrN2O3P(1+) | MND = 8
Ir        7.73378805663697    5.39346505438960   10.16044037125185
Cl        9.57243513866569    4.90664818822063    8.75118012014122
N         7.37850365340517    6.94212244255192    8.57524920366892
H         6.49021705155286    7.41616919146235    8.74656044355814
H         7.32407834081628    6.50136129005932    7.64760516045370
N         8.42054981880938    7.91766548567872    8.68369484741623
H         8.35920604430588    8.61588532291098    7.94233040030280
H         9.31254429937061    7.43151931849465    8.58662060823807
C         6.47976951968976    5.75628241458554   11.94960413655168
C         7.37023334474761    6.86551085463118   11.80800580953292
C         8.71236992209475    6.37855286039903   11.87635691820469
C         8.66032112531188    4.96633748690377   12.14214124091802
C         7.27791501732312    4.57816629313747   12.16950692829861
C         4.99815507176648    5.80303159407508   12.09871835062372
H         4.53347918917870    4.99591512755157   11.53817830557277
H         4.59126984037451    6.74802630656472   11.75066307473154
H         4.73306768663448    5.68395975897695   13.14995459372197
C         7.00387257394936    8.30013963189284   11.67761334846494
H         7.60042493608457    8.77994196834324   10.90303565683315
H         7.21327589407816    8.80734011102079   12.62003628519581
H         5.94907437089975    8.42740345948809   11.45061709517204
C         9.94620552408787    7.21378295963907   11.90308237356870
H         9.80781626775810    8.12938096342169   11.33479346987271
H        10.79142974340338    6.66932352001042   11.48975334197090
H        10.18625208101503    7.48020879824784   12.93319546826211
C         9.84402157432758    4.13818447497332   12.50600541707355
H        10.25656317711385    4.50936186817121   13.44502045267299
H        10.62633310352907    4.21559986345427   11.75264903144141
H         9.58334672597792    3.09179824038201   12.63536448692976
C         6.72107908667070    3.25744976306223   12.57443077419617
H         7.46713846381152    2.47011787030865   12.52020340428842
H         5.87635495538259    2.98743759057509   11.94488646664580
H         6.36575200289631    3.32349386102284   13.60391289092145
P         6.57295436564950    3.89646733175933    8.81216819691961
O         5.15508007825305    3.71636035262033    9.49399877352665
O         6.15329644760115    4.46025877052995    7.34804419563935
O         6.95910244433897    2.37852457751191    8.49944957728412
C         4.12769110385651    2.86686570171901    8.94554300555591
H         4.47690988557924    1.83209623313411    8.96825134261965
H         3.94785242487773    3.15762958587724    7.90788871819449
C         2.87437641784097    3.03836260951350    9.78166554406863
H         3.05803933826796    2.74035500813916   10.81067913339997
H         2.08201906985580    2.41681253492191    9.37527037567613
H         2.54934622474022    4.07523170426644    9.76775813912910
C         6.65042445184213    4.00350026152204    6.08519241072330
H         5.80953632425424    4.10690289704557    5.39369249906188
H         6.91708846808225    2.94620555721484    6.15733401421517
C         7.83814074164437    4.82158968734088    5.60702421812743
H         7.54763311443530    5.85537307749008    5.43115796830342
H         8.20150820143922    4.40934122169501    4.67019768876284
H         8.64432756620375    4.78966009164429    6.33756958338133
C         8.27096832315368    1.80529278120372    8.42751339637568
H         8.94363690986453    2.46563923888339    7.87663845886319
H         8.13422234640034    0.87598446612541    7.86843411389244
C         8.82537226695723    1.52796904636711    9.81044773636736
H         8.97274160349891    2.46897787812715   10.33382146021985
H         9.78083790467452    1.01943778522766    9.72191085015925
H         8.13905037520913    0.90207766532359   10.37463812296300

