41
CSD_code = MAQHAN | q = 0 | S = 0 | Stoichiometry = C18H14N8Pd | MND = 4
N         2.79301770347366    6.37421861368689    6.19688241836176
N         3.52516708278466    6.71142389801492    7.04840653356246
N         4.14715803566787    7.02946211225733    7.94671055670937
N         1.53120831804586    6.27455102544928    3.64381384915406
Pd        3.37379923334733    6.01614869456433    4.28549657974161
C         1.12366300439686    7.45904597856794    3.24301007351041
H         1.76981700569648    8.30482791599617    3.47336660927573
C        -0.07457817182709    7.65246481397813    2.54495699657344
H        -0.35267082442068    8.64737279783206    2.23580032548890
C        -0.86054734937225    6.56869488269923    2.25256111600856
H        -1.77962108295389    6.67730363117624    1.69656011210133
C        -0.45676836182477    5.28802238103653    2.67981299105024
C        -1.19346084723877    4.11503745009304    2.41668503472132
H        -2.11658685142451    4.19855015264981    1.86285983181377
C        -0.74069089260973    2.89941182495871    2.84722455654596
H        -1.30465002826570    2.00377857794899    2.63536908414648
C         0.45947822164547    2.79894901775073    3.56984207590486
H         0.79348008964829    1.82891602913805    3.90586339961727
C         1.19985488728970    3.91550794695060    3.84487441372309
H         2.13631773934122    3.85695417343002    4.41823433090885
C         0.76414033860384    5.18122682095759    3.39661340349585
N         3.95455481926990    5.65750170785954    2.37402059331219
N         3.22202630156790    5.32185699795820    1.52212812593721
N         2.59916740036980    5.00437487783633    0.62428663868426
N         5.21671229009250    5.75745187874217    4.92602562072593
C         5.62399368807884    4.57293740917045    5.32706663214928
H         4.97763927766627    3.72725199392751    5.09690502041122
C         6.82207655570582    4.37938647537100    6.02535193476098
H         7.09996732832984    3.38445676383869    6.33462021808973
C         7.60821910376659    5.46303980005115    6.31771943303786
H         8.52727891660635    5.35431065294757    6.87372026214200
C         7.20467606159852    6.74374586295039    5.89033486018013
C         7.94152843175686    7.91663324299170    6.15346359199764
H         8.86457653484308    7.83301213084547    6.70740673885680
C         7.48900613713258    9.13229866988446    5.72276699160978
H         8.05307910532936   10.02785915507525    5.93463543946171
C         6.28893671954759    9.23289209306767    5.00000078649448
H         5.95514143865679   10.20294935959476    4.66384540775409
C         5.54840589604191    8.11642777452904    4.72497526122527
H         4.61198967928252    8.17507082190807    4.15155556735052
C         5.98389706435282    6.85067359231415    5.17332658340436

