46
CSD_code = MAQJAR | q = 0 | S = 0 | Stoichiometry = C15H26IrO2PS | MND = 8
C         0.03188445906873   11.50293633888177    3.87679653039304
H        -0.66763887018121   12.26244015007977    4.20470498259261
H         0.68409422057984   11.14068431345171    4.66583731806506
C         0.56711654361710   11.62230769353227    2.56917848742838
H         1.59691548165576   11.31303568180637    2.41974568867730
C         0.14982085184750   12.70564719172399    1.67727933091883
C        -1.11719494560598   12.94581875564962    1.38885120662526
C        -0.85315306036247    9.33913680911903    0.63788240955702
H        -1.08529446260975   10.19684142773154    0.01509703482114
C        -1.93203579878859    8.72343003257629    1.27366149829121
H        -2.91201498323039    9.13886653823360    1.06296843384522
C        -1.96987006601278    7.25996057876690    1.65444792372679
H        -2.05771572306127    6.65415228380300    0.74588506598757
H        -2.87567003429214    7.08800551108801    2.23920221008765
C        -0.74955226164400    6.80062095286968    2.47182203390298
H        -1.05907277885525    6.01263228864358    3.16112240866098
H         0.00116307950528    6.36889802694150    1.80817031402753
C        -0.09404279227491    7.91282520765509    3.26218816774214
H        -0.14137535378693    7.80474681412259    4.34126492021844
C         0.92726754561234    8.68909506847506    2.74692401763657
H         1.63859128779181    9.10814498683714    3.45475577596998
C         1.47501892328530    8.55587498964572    1.34410247321653
H         2.17205247753058    9.37715577786526    1.17353335687414
H         2.05483650131737    7.62782129192962    1.28132041332022
C         0.39950356132994    8.58160929598384    0.24413309090556
H         0.82628244308587    9.04342130830268   -0.64737327824788
H         0.11593374305023    7.56325144481440   -0.02828266950436
C        -2.82262002232565    8.07966229017878    5.35384870959911
H        -1.95883397434395    7.99426757518833    6.00856658175811
H        -2.83917189868184    7.22432458410589    4.68496722695469
H        -3.72706089442233    8.07553611362096    5.96019892839083
C        -2.83115731218966   10.83316703275008    5.78106229696425
H        -2.97964932711272   11.82588945701497    5.36579447896335
H        -1.90719914751873   10.81486448076034    6.35525804970014
H        -3.66918130383209   10.57196181401630    6.42621045410474
C        -4.41844546180950    9.71665686635398    3.72823197804472
H        -4.58741029243274    8.87590951867841    3.05843741362311
H        -4.53644522860062   10.64014780821602    3.16775811092418
H        -5.14077588440247    9.68558496061348    4.54361023923711
Ir       -0.93440105787640   10.00480001721176    2.71459683144892
O        -2.89527673093795   12.43250673811808    3.22728355400591
O        -3.21815496050324   11.39496194073465    1.03947856651986
P        -2.71082083462493    9.64973333634159    4.38557049165624
S        -2.27928880294984   11.74481672907251    2.09438699188752
H         0.94763958661081   13.31997754708782    1.27159880540143
H        -1.51449644061889   13.76367042940580    0.81762114507579

