59
CSD_code = MAQKAS | q = 0 | S = 0 | Stoichiometry = C18H35IrO2P2S | MND = 7
Ir        1.24820482017630    8.47581034314135    3.32641343187096
S         2.69826946703028    9.64683375171736    4.64414752039718
P         2.43143974851758    9.80553647119338    1.50867675629002
P         2.92068355377288    6.74674857925765    3.42343353188237
O         2.18782038775995   10.91509482895034    5.16040761948036
O         3.97235899826521    9.78078276573823    3.92670932925719
C         6.26448953467908    9.83415520587655    7.48582003805665
H         6.32390071556534    9.30057583068327    8.42228014832813
H         7.08985861613749   10.48502714654719    7.25442963324637
C         5.22280314078622    9.70049524572201    6.67150289187574
H         5.16659372119160   10.23763789317623    5.73698420550978
C         4.10160686033506    8.83727123686756    6.96619482968892
H         4.16904852768648    8.27257988938849    7.89515690802693
C         3.03513923943619    8.70633843188582    6.18441668142759
H         2.20000202908935    8.07577416596378    6.44990491554060
C        -0.28012259481305    8.95205026652932    4.75616707890549
H         0.15700628826503    9.26528032911687    5.70032463401134
C        -0.24838454341984    9.91313785955510    3.72054849642215
H         0.19404389496968   10.87059084971242    3.98147663441297
C        -1.31093791733052   10.02316502758510    2.64818955648533
H        -0.99317998234181   10.78895265926888    1.93798005041498
H        -2.24853267352159   10.37173907331452    3.09483131321729
C        -1.53709579610208    8.70231881571601    1.89320171932845
H        -2.39561191398173    8.17283662291769    2.31010691812865
H        -1.77113148882178    8.91992885985733    0.84931230836843
C        -0.33155015440931    7.78108496074108    1.94912813704911
H         0.08052574217972    7.52010015091521    0.97626932070370
C        -0.17061718019717    6.83522522462526    2.97314875535118
H         0.31452503048098    5.89977330517865    2.69640358718774
C        -1.13248649206617    6.65240775582522    4.12976142530463
H        -0.69157968778525    5.92995048069430    4.81901153944804
H        -2.06316345436118    6.21187041378094    3.75411867079518
C        -1.41684043370754    7.95517621944302    4.88944321643931
H        -1.57457569051816    7.72572120945972    5.94456441531021
H        -2.33414355196493    8.41721334709189    4.52088031116222
C         2.35611138416136   11.59595296932291    1.88936142416112
H         2.79602765589675   11.76277567120390    2.86904197135579
H         1.31505827382693   11.91172250471698    1.91727727030715
H         2.89310827483342   12.17315141263028    1.13667866789815
C         1.61102310608436    9.83872286239492   -0.14876070807798
H         0.55026832898265   10.03463070574596   -0.02160029093253
H         1.72732838426389    8.87225883680177   -0.63432586954097
H         2.04448428667192   10.61000275211236   -0.78352749186743
C         4.17555811996132    9.68279186305907    0.92629494515597
H         4.36927468531794    8.68893579257729    0.52646958245689
H         4.82414967124042    9.86321463197473    1.77824624853870
H         4.36571206448245   10.42482119512385    0.15123725681736
C         2.64526735884588    5.35585646438529    4.60365675384547
H         1.65356441658295    4.93473801392248    4.46256494031238
H         2.72045098037266    5.73814464768687    5.61923885718509
H         3.39231583957886    4.57642280213011    4.45914648115524
C         3.09981721534527    5.78985664248235    1.85283167809413
H         3.43819687960036    6.46940428270773    1.07349755862565
H         2.14484171837469    5.36938858736729    1.54836205000340
H         3.82515940969211    4.98598856435668    1.97052642433741
C         4.70423710203629    7.01784807614488    3.75028618289422
H         4.83771890517516    7.41498196471952    4.75305240182035
H         5.08922593776431    7.75393895061019    3.05082517040669
H         5.24813323992556    6.07816458838471    3.64677196572346

