66
CSD_code = MAQNOJ | q = 0 | S = 0 | Stoichiometry = C19H44NiP2 | MND = 4
Ni        4.08893665437844    4.83799732466042    7.39611885662611
P         2.97342564951329    5.04788189813466    9.42532519796112
P         5.34431510548948    6.45345509877991    8.50271410957422
C         4.58545743838084    5.15380114370858    5.54208371637054
H         4.05273969523469    4.66770812584241    4.72481119007217
H         5.65514373413577    4.96412292535198    5.39696998472914
H         4.40952024846618    6.23785925753444    5.45645723812813
C         3.48207946973324    3.09128523821659    6.79211009873025
H         3.93602836483337    2.60270090775582    5.93002781023105
H         2.39774240927027    3.10028386341505    6.63255865263106
H         3.69836910794702    2.47308010173638    7.67790949588091
C         4.20498006507865    6.34210333182511    9.98360688078807
H         3.72356350469322    7.29563237722517   10.18978077739646
H         4.73661245754440    6.02648431530806   10.87874752055476
C         1.45119603437364    6.09593059273425    8.95105624563720
C         1.79952809672781    6.61640858040149    7.55264883847566
H         2.06228486918593    5.78113955810282    6.88651098562455
H         2.64286557426303    7.30111922830905    7.59900927448089
H         0.95423572135154    7.14881363587673    7.11652589792633
C         1.08914378109580    7.28745527316973    9.83799040301154
H         1.84330995029000    8.07016847882409    9.79888458295844
H         0.93582170994747    7.00825044685704   10.87532229625068
H         0.16032792417559    7.72342367852820    9.46917308407174
C         0.23329905595391    5.18131746478842    8.81039684694657
H        -0.52524433100266    5.67176104243950    8.20019070609250
H        -0.21554128270776    4.96081420323052    9.77555803571392
H         0.50961811918587    4.25027064894303    8.31835132248558
C         2.58004413360942    4.07670956002691   11.02464000495136
C         1.64549362597668    2.91558039136043   10.66869331607089
H         1.67231367080653    2.16300504673716   11.45647795824222
H         1.96524932684887    2.44478500764890    9.73976448402272
H         0.61560786291355    3.23500964655229   10.55664483958749
C         3.88316870360688    3.43678469372861   11.51559201764696
H         3.68090534429810    2.82622625961913   12.39582105155583
H         4.63041444516545    4.17370275618141   11.80096721912927
H         4.29742336282302    2.78207493298240   10.75096281932457
C         1.99044930067242    4.91854420449905   12.15225550308670
H         0.96759779855304    5.21205919917890   11.93253900782656
H         2.58581700669017    5.81258329331364   12.33228552407522
H         1.97287575693736    4.33633800949302   13.07408103346531
C         6.87259115651112    5.46461949769752    9.07492740582504
C         7.34207012386137    5.63057591818465   10.52040974199115
H         6.61685276960471    5.24415841561916   11.23295235380268
H         7.55997261457856    6.66237662607722   10.77604886377583
H         8.25722471901233    5.05333350856142   10.65487417554938
C         8.03968231330695    5.74865638094195    8.12793596211220
H         8.77550158566690    4.94780823897130    8.20191192628541
H         8.54239591644751    6.67904007053462    8.37954094061451
H         7.69284880382574    5.79181213726767    7.09682923440031
C         6.45244051773902    4.00642237327314    8.86299333383458
H         7.28827975213134    3.33218175570937    9.04996662426298
H         6.10903378312209    3.85208881591831    7.82914189131910
H         5.64469457354846    3.73930922001595    9.53996993095427
C         5.80466355923463    8.30755140923797    8.42144099550465
C         6.50742200915413    8.84391901121797    9.66492851638043
H         7.52453492893849    8.46846110272672    9.73649816853545
H         5.96581231661720    8.57824224453785   10.57170534162644
H         6.56314170044314    9.93174401454618    9.61434149396278
C         4.51295215349242    9.10282370596772    8.20316942856985
H         4.75024373131348   10.16136643092512    8.09507020704825
H         3.81958815017414    9.01285150134085    9.03621623840388
H         4.01859752636305    8.78295936125912    7.28766284470763
C         6.66100010304944    8.53865346447717    7.17181154605439
H         6.65920720127936    9.59690754228710    6.91143423705733
H         6.25532884107021    7.98168869743444    6.32799392206156
H         7.69269968311182    8.23957681228033    7.31805984698380

