59
CSD_code = MAQPIG | q = 0 | S = 0 | Stoichiometry = C24H23Cl4O5PPtS | MND = 4
Pt       11.84540869654561    2.35541716813204   16.66637646129564
P        12.69183336269475    1.56473454596696   14.71883638938525
S        10.27722723624361    3.52803495143460   15.61905820633762
Cl       12.22685025774458    6.13133442273221   20.44003374525477
Cl        9.48938177529547    5.38026228299175   19.84670990847892
Cl       14.18794813631490   -2.34763181945553   17.70354375971736
Cl       12.66128139717923   -1.34710631632705   19.96221915793828
O        10.93973680623653    3.05878488145697   18.47438979382206
O        12.33688514824521    4.68542964955125   17.93500587311778
O        13.17815554814612    1.23782180654878   17.81073011072275
O        12.03617027946432   -0.43535196860138   16.91760209319130
O        10.42646344549116    3.61241642487940   14.17394994754458
C        11.55110642991402    4.13896686443606   18.69321647446051
C        11.15656619154733    4.79824783004822   20.03317426694099
H        11.15552023401797    4.07089801422566   20.84702438342097
C        12.87511418234648    0.01678423077445   17.67900524326133
C        13.69350356723177   -0.91118659394271   18.59320069004387
H        14.58113771690646   -0.40868843221187   18.97990089359399
C         9.85899720547277    5.20137114993589   16.18738740831559
H        10.77276732708824    5.78417391359473   16.23454737606596
H         9.40097737266744    5.14589548166467   17.16816552479016
H         9.18069344596736    5.61998141212809   15.45272097944748
C         8.70188111283308    2.69560722614605   15.96505427197085
H         7.88261224351736    3.26605627409073   15.54236721650489
H         8.61088953159735    2.60923279205804   17.04302465716157
H         8.74944470922125    1.71118071736931   15.50911385585712
C        14.03070984694083    0.34603606067228   14.83686714399704
C        13.99498941505937   -0.90480458224073   14.23598976511372
H        13.12986762196252   -1.20643426845600   13.66422497315863
C        15.06948788861760   -1.76574175362921   14.38310195845534
H        15.03985436223434   -2.74158675163178   13.92212067930860
C        16.17311774640635   -1.38507077707254   15.12681836148274
H        17.00225694419132   -2.06556605891742   15.24764153907353
C        16.21072043692807   -0.13463725107861   15.72544567900581
H        17.07049800125307    0.15987477696502   16.30852168738241
C        15.14431931614991    0.73137307239875   15.58077600316360
H        15.15126629238407    1.70688832702062   16.05187161055207
C        11.44288545348866    0.86159807042093   13.60924918331467
C        10.72693567455572   -0.24600822740547   14.06355623516151
H        10.95084950059999   -0.65741545713810   15.03667129467575
C         9.73963724009648   -0.80167524495957   13.26957862396559
H         9.18906220109130   -1.66165292162412   13.62125948294982
C         9.45380669553561   -0.25310101969411   12.02923859741698
H         8.68024643881224   -0.68585939250146   11.41204705899293
C        10.15408720799720    0.85685279245231   11.58555983683815
H         9.92325131839613    1.29183641588446   10.62453493771282
C        11.14522564607900    1.41896834124595   12.37063269304083
H        11.66845335695076    2.29995158933927   12.03417090725111
C        13.53535953291555    2.90865928764982   13.84022068518387
C        13.62383829727090    4.15918308066013   14.44033177891034
H        13.18333020011308    4.31455014418503   15.41967854237787
C        14.29057820758904    5.18643134363732   13.79590034723917
H        14.35928508000964    6.15817264422407   14.26104433298187
C        14.87464199448626    4.96635412744447   12.55907198099868
H        15.39123240371992    5.76969276627422   12.05518378180947
C        14.81000896124664    3.71244001517901   11.97123617443322
H        15.28031713437116    3.53884539434065   11.01458302717113
C        14.14758407430202    2.68108903510303   12.61105211878045
H        14.10714214829996    1.69558951164322   12.16676028948189

