43
CSD_code = MAQPUQ | q = -1 | S = 0 | Stoichiometry = C16H15N2O8PdS(1-) | MND = 4
Pd        0.33537941799358   17.44118916891836   13.17792259674383
O        -4.14420561196537   16.09407982880221   12.11339099603144
O         2.01994928140277   15.77638513888131   14.79076535123687
C        -1.68597643660414   17.19253852315614   13.21598820931374
C         1.43300304743870   14.85088798892797   13.97112025447624
C        -3.49120635805035   15.45641166175441   13.10870522146830
C         0.21783804505843   15.48942028574993   13.47248600969171
O        -4.03300005025736   14.64771722056945   13.82418534811708
C        -1.01765376053220   14.93521172438708   13.48287168233770
C        -5.51771059627615   15.78263327707939   11.98909857362106
H        -5.87572688306710   16.31442914918467   11.11004847507110
H        -6.06248918017156   16.10491578727736   12.88084187675584
H        -5.65273492694187   14.70466528272586   11.86843359968691
C        -2.08513488313272   15.89085862267880   13.21162006188001
O        -0.75229369291811   13.12742833163022   14.93287088310990
O        -1.84934496284659   12.74108972600310   13.01141543620607
O        -3.67504671385095   18.17061020194718   13.97652321328013
O        -2.53644023836553   19.25755317502118   12.37057558967653
C        -2.63487483080756   18.28844898628034   13.09768334801291
C        -1.27700929836387   13.50090595571056   13.75304436409290
C        -0.82695547856086   11.74701173588426   15.23811766967585
H        -0.65924416692099   11.65508683166015   16.30927804581839
H        -0.05546584054909   11.20499318303858   14.68565129677922
H        -1.80878336653255   11.35371367182666   14.96362112513977
C        -4.62800697854828   19.21098591547578   13.93259755531469
H        -5.40752922770334   18.94535436570202   14.64416388164088
H        -5.04395147053643   19.30687216142241   12.92582015706076
H        -4.17137848811713   20.16541343696703   14.21175461643742
N         0.61693048836501   19.48918088903045   13.10773961946397
N         2.77258186820296   20.49550451618424   13.18209237715395
C         1.97544592852619   19.43669052417486   13.00038944492064
C         2.19400716476682   21.64841566956209   13.44704168736119
H         2.86813297723890   22.48748463300609   13.58422086760658
C         0.81721144871186   21.80142624251631   13.54154223286442
H         0.36049940859772   22.75713670694234   13.74019214858210
C         0.05247709547038   20.65034244251169   13.37036575551226
H        -1.02972871999440   20.66883174589285   13.41498318945780
O         1.90342319346256   13.75623926887798   13.76749334509915
C         3.26522015986929   15.44226958378963   15.37206684064464
H         3.19303275490895   15.57958655282048   16.45273672561856
H         4.03174880406765   16.10310412478137   14.96151792416999
H         3.50626214689045   14.40168290595032   15.13852406245590
S         2.60504893066122   17.91819285529611   12.56929834043305

