83
CSD_code = MAQQAZ | q = 0 | S = 0 | Stoichiometry = C40H32Cl4O4P2Pt | MND = 4
Pt        7.69669212694064    3.61387253845778    3.06643954075347
O         9.74011127819510    3.27721480735499    2.68927673333819
O         9.60332677279870    2.75005873732420    4.83512472837858
O         7.37707028650228    1.86859398803381    1.94194576022150
O         7.78965634293775    3.33969499043175    0.34018089868343
Cl       11.46748858110287    0.46261771510071    3.54119517175003
Cl       12.58821989329879    2.70765281461446    5.00432048441772
Cl        5.65576427427669    0.98361432963207   -0.59055322294707
Cl        8.00729239072793   -0.46018973174442    0.31062103328650
P         5.46667157455432    3.46169152246815    3.42403351018999
P         8.24832048216151    5.41859457227029    4.31602136481907
C        10.18354554385743    2.79207116995195    3.75720793004550
C        11.60917728952769    2.22512989809747    3.62415046545082
H        12.09147190954641    2.57420769152087    2.70976198715681
C         7.57103956476447    2.20759375448235    0.74839565602523
C         7.40332192344399    1.08101976519192   -0.28979297170220
H         7.89277249745313    1.32244275377757   -1.23424065733947
C         4.70780891793330    4.33769600883016    4.83148153251617
C         4.53546251262271    3.72886686105652    6.06848265155737
H         4.85832401406875    2.70844450580308    6.21468081062080
C         3.93689587082489    4.42374721312583    7.10426449288196
H         3.79737625753007    3.94302351905191    8.06095554634776
C         3.51107077979615    5.72724003275026    6.91501248040888
H         3.03443378522735    6.26233988775057    7.72252709087140
C         3.69721293573668    6.34440294857054    5.68834371337399
H         3.37085789910701    7.36302756349038    5.53923473279297
C         4.29743146282384    5.65621006682158    4.65170520863007
H         4.43975061604519    6.13294825596574    3.69164609001915
C         4.28664249124591    3.83085040929049    2.09207541042161
C         2.91860944162970    3.78222654437676    2.35912785288411
H         2.57536903782677    3.56729310981635    3.36239030807204
C         2.00925873169071    4.01542696006425    1.34526239137686
H         0.95021840951927    3.97191661814833    1.55353813185769
C         2.45453051474321    4.30057140221839    0.06311109103694
H         1.74021798689051    4.47637440003251   -0.72737558483253
C         3.81165895178162    4.36124073261840   -0.20189330343395
H         4.16098258635734    4.58435091013424   -1.19848283465753
C         4.72945962741191    4.12970084256320    0.80890396237217
H         5.78806039654183    4.17434444656502    0.59611659199429
C         5.25188496648743    1.70011339129515    3.81331523264939
C         4.24477064286229    0.89896232631311    3.29319166076169
H         3.49321164280404    1.31900328731484    2.64001113309696
C         4.22375734678144   -0.45359378189488    3.59147542744993
H         3.44636573858391   -1.07866218930085    3.17722378186908
C         5.20341912974803   -1.00754055267135    4.39732060196448
H         5.18842664765086   -2.06561086871791    4.61321244189924
C         6.21764370084209   -0.21077685492418    4.90742574557583
H         6.99571976905721   -0.64665901000449    5.51616674586472
C         6.24758090953681    1.13819766085619    4.61361174890676
H         7.05778294833682    1.76398553597266    4.97532937575924
C        10.02914222624452    5.73843668920546    4.47233423666339
C        10.71182345465975    5.73358136430774    5.68144041776070
H        10.18079630304376    5.54570644687549    6.60311718867000
C        12.07808163148866    5.95749335748324    5.69631384255984
H        12.61104286003904    5.94706592774439    6.63519560212848
C        12.76311789864627    6.17787782567005    4.51368070728146
H        13.83058035066936    6.33844606608242    4.53160262124974
C        12.08234413118368    6.18038060655186    3.30556677294707
H        12.61774231848688    6.34505099580419    2.38217340891791
C        10.71850491793599    5.96286546367782    3.28178364741547
H        10.17618819526565    5.94495820575768    2.34461711976889
C         7.70030423938619    6.96510229790355    3.52896451046392
C         8.17083355189452    8.20410817977855    3.95574654143835
H         8.87598195864558    8.25650729189673    4.77443459624856
C         7.74327329277522    9.35813005720388    3.32510086748107
H         8.10788516059238   10.31887401384768    3.65766350625682
C         6.85410675055722    9.28384736325895    2.26369602948309
H         6.52572064195714   10.18814442883543    1.77330794862920
C         6.39991278119520    8.05160971811450    1.82272077632196
H         5.72139982507226    7.99103670922196    0.98474084737241
C         6.82523075036538    6.89518474875616    2.45211666182522
H         6.50217295519090    5.91968632486591    2.10411300623409
C         7.61026282672781    5.48638500454886    6.01852878881603
C         6.91798403401044    6.58292663036221    6.51896598711936
H         6.71491085388303    7.43345939127442    5.88544685270757
C         6.48589023480502    6.58588320043597    7.83351172558070
H         5.95655755678848    7.44490951968585    8.21874452711059
C         6.73024802686319    5.49715670618316    8.65279690481045
H         6.39414210650507    5.50787164686855    9.67907455767620
C         7.40456310411028    4.39492830955335    8.15282086538362
H         7.59407781260972    3.54254955512106    8.78812398790981
C         7.84228921008004    4.38536977975882    6.84152898895523
H         8.38284863625200    3.53842267301294    6.44694528145651

