34
CSD_code = MAQTON | q = 0 | S = 0 | Stoichiometry = C11H14Cl2N4O2Pd | MND = 4
Pd        4.41898044039068    9.54649585267488    1.58588374869886
Cl        3.22731384431444    7.68567976086033    1.56653384904703
Cl        2.95431530701673   10.30466344326288    3.06602648672085
O         7.23692551515488   14.64807560909961   -0.12600780105326
O         7.18539489007121   10.98495980686130   -2.50015052379969
N         5.61350282194287   11.28609706501067    1.41873564094569
N         6.66871831003337   12.44207914764282   -0.35645488096035
N         6.11474831286466   10.21550280721997   -0.56203050567610
N         5.64377475229219    9.05446098588336   -0.02887000740340
C         5.76776847567048   12.35658858008727    2.22512116656696
C         6.32412149049151   13.52261673990029    1.73129304386156
H         6.44650885323531   14.39701544820871    2.34552520566365
C         6.73612058385438   13.53818428169354    0.39379576697179
C         6.12217769393600   11.37514659375366    0.18910126624700
C         6.66028298146613    9.97928622134453   -1.79726257918980
C         6.52266198445995    8.63506686388573   -2.04083551473161
H         6.83013173159328    8.08834384479681   -2.90741751029030
C         5.87981905124786    8.09579232606414   -0.90271656650073
C         5.35752649596113   12.21537818088047    3.64079268580099
H         5.61214664684108   11.21525532564616    3.99886531591493
H         4.26956195212119   12.29115340710045    3.71216840806007
H         5.82023335490749   12.97711720735794    4.26062444132913
C         7.64577444747420   14.58488725243338   -1.48347457610331
H         8.03462733051255   15.57182904618255   -1.72255020717235
H         6.79894021209022   14.33885197203855   -2.12640813190320
H         8.41568336962328   13.82286531447213   -1.61518612630734
C         7.69436050909608   10.63870716806258   -3.77466122989120
H         8.06676461865788   11.56481429869477   -4.20692550462867
H         6.90884132507487   10.22398569771654   -4.41205819258052
H         8.51095450565790    9.91651122505074   -3.68944689880128
C         5.54157103715576    6.67452487755645   -0.66132757241792
H         4.91822928707834    6.59263228113927    0.22787303148516
H         6.45381447110204    6.09568209028627   -0.52165124012409
H         5.00770339663413    6.26574927714927   -1.51620448778462

