59
CSD_code = MAQVOS | q = 0 | S = 0 | Stoichiometry = C33H19AuF5N | MND = 2
Au        6.80127172222879    4.40875512565115   11.78260093957766
N         8.08304697310963    3.27430383604221    9.25561676240851
C         5.97425040044135    5.02869403078888   13.51114003532733
F         7.24285085530375    3.50100584459296   14.78042554522597
C         6.31642752097476    4.48432994602157   14.74366395407899
F         6.14158949036418    4.31604045836294   17.10795898659117
F         4.25850274567588    6.30215191248468   17.11210942557933
C         5.76390687533421    4.88707808235108   15.95299626094191
F         4.61643404752087    6.62008581211146   12.42603375252470
C         4.42860792381976    6.47371495159888   14.75535472945358
F         3.50559549720659    7.44854151822591   14.74402833798126
C         4.80791328574227    5.89456736951808   15.95942064098946
C         8.66395459663990    2.68941485941949    8.18174525947322
C         7.58841205654397    3.76585160302246   10.18511777408257
C         5.01378805058606    6.03153581143231   13.57529491723500
C         9.99030701777792    2.26266152233853    8.26437667282860
H        10.54729385164880    2.42457952776382    9.17452860559625
C        10.56754347019350    1.63976666527124    7.18100040921462
H        11.59554121769103    1.31726304395288    7.23780531070750
C         9.84332738905798    1.42696818424390    6.00441021852223
C         7.93377119078450    2.51512498785507    7.00620717220430
H         6.91283972891163    2.86179049651494    6.95458485969212
C         8.52903216330699    1.89589607926225    5.92901193622648
H         7.96827481883216    1.75269721386770    5.01731306558875
C        10.45252976575532    0.75757169182489    4.84905595585548
C        11.20852858952469   -0.35764826908059    4.98017858261181
C        12.55690770773544   -1.52858714290656    6.70505698084893
H        13.44041527026987   -1.30457923859253    6.12420575947969
C        11.31333513423695   -1.09195814173775    6.25183524165595
C        12.66481976585285   -2.22531033159897    7.89380353872197
H        13.63543552606127   -2.54934351346116    8.23919142720088
C        11.53248452141473   -2.51093488439171    8.63876107769679
H        11.61725614988813   -3.05760932092750    9.56584232844517
C        10.28934334921740   -2.10107326914185    8.18500757135623
H         9.40196072616127   -2.33508895979218    8.75452754020320
C        10.17834878113139   -1.39716411169702    7.00109274891266
H         9.20573094667544   -1.09415378458101    6.64067836477750
C        11.97081448149885   -0.93275814784297    3.86134463401094
C        11.96718383265900   -2.31086299301773    3.65210474271081
H        11.37718298081059   -2.94394172707498    4.29975571789151
C        12.69485051551340   -2.86495268331619    2.61608962371280
H        12.67570666567692   -3.93333624102263    2.45863187045935
C        13.47479738703350   -0.68525358982110    1.99679176456600
H        14.07142754698484   -0.05028388414979    1.35860981096942
C        13.44922868873373   -2.05411952006214    1.78437529588441
H        14.01978625233101   -2.48788108179169    0.97680749697999
C        12.74175144609890   -0.12637359899038    3.02582184350142
H        12.77496687969954    0.93951395915570    3.19664365528109
C        10.17149485129684    1.37352579946147    3.53988081039772
C         9.77394940280190    0.59805675676119    2.45270715190402
H         9.66946439465008   -0.47030754138418    2.57125414762996
C         9.50253260335535    1.18946302058081    1.23384982448068
H         9.19409872558818    0.57758650347937    0.39911697393995
C         9.62210572148460    2.56125505786806    1.08128420208595
H         9.41436655568090    3.02060114898693    0.12653722229196
C        10.00375958279835    3.34195516772061    2.15955926400420
H        10.09443797649975    4.41242202413921    2.04770197187638
C        10.26976276127596    2.75455688259472    3.38227112840293
H        10.57335162390062    3.36509508111564    4.22147815719834

