70
CSD_code = MAQVOQ | q = 0 | S = 0 | Stoichiometry = C25H40BrNP2Pt | MND = 4
Pt        4.33711039498986   20.10716155551025    6.80442475918707
Br        7.00044686834363   15.72725912597830    1.94810397217689
P         2.61372470827744   20.18289679299698    5.24080756810742
P         3.46753451694548   19.48304170136094    8.88578210643182
C         6.39495236968393   19.34896049244863    4.88189596539572
C         6.43021869667009   18.02972750361011    5.35510249387793
H         6.29343946910470   17.83192689885928    6.40946503328208
C         6.61507933999802   16.96505246361783    4.49864616852290
H         6.62832400176427   15.95350722948261    4.87614833725932
C         6.77427069402914   17.20285256590862    3.14345827124465
C         6.76443560308959   18.49284243607108    2.64203008952073
H         6.89916594575927   18.66624235618437    1.58487840579095
C         6.58138189288032   19.55058844478719    3.50881691053983
H         6.57639045026168   20.55829280253863    3.11653391832253
C         6.11857807241889   20.48446013517839    5.75691455261810
H         6.17302622269696   21.45196757036409    5.25650047737050
C         6.38314236088913   20.44501426179690    7.16746527859138
H         6.97308456767599   19.61703395883802    7.56190401088961
C         6.50187384216728   21.68068102627608    7.93351896417130
C         5.77495215934516   22.83530490963900    7.60555453416025
H         5.09712749462161   22.83612639008392    6.75886842527807
C         5.90391462669351   23.96036650371004    8.39344548928820
H         5.34957999578075   24.86332201167205    8.16684328117211
N         6.68090892938691   24.02785642211238    9.46609719501572
C         7.36661405184730   22.94108784590401    9.78518765195221
H         7.98857039918283   23.02749163890498   10.66800579343661
C         7.31890636758099   21.76202518385549    9.06699137967524
H         7.90396905384402   20.90775073405298    9.37854531688482
C         1.63558711304920   19.41257305685534    9.18000475803776
H         1.26199963847999   20.42668500277801    9.01410798981723
H         1.23149684055208   18.78964685656549    8.37622768666560
C         4.09739729553218   20.29634658795810   10.41990602204420
H         3.79060206303550   19.72626660553692   11.30058935816032
H         5.18878106218688   20.26261343918359   10.35846160636361
C         4.00091055824082   17.74124782930107    9.18569222733894
H         5.08620079793153   17.77373342902629    9.31834143201745
H         3.56350798295165   17.33782548208133   10.10133289092288
C         1.15390610442350   18.90005140070057   10.53057150647396
H         1.50602176266097   17.88947066423302   10.72171811402115
H         0.06514476986586   18.88211312968279   10.54675967619158
H         1.48923371455222   19.54343710859107   11.33962054968687
C         3.64299191717583   21.74700189857811   10.51368929777390
H         3.90487116573208   22.27888811953714    9.60045821577566
H         4.13060679470766   22.24914596488465   11.34681638861541
H         2.56621606162171   21.81402491265660   10.65401722173864
C         3.65303028119977   16.88572039716080    7.97333412240400
H         2.58257530296043   16.69768818380394    7.92420119045286
H         4.16742526504554   15.92720141489050    8.00275431713187
H         3.94678172153856   17.41813098135630    7.06323253015238
C         1.15777511486599   21.16959364036395    5.80949749793773
H         0.49922826253430   21.42503270861686    4.97711574173117
H         0.59665273043729   20.53875812227822    6.50331210627518
C         1.79888751070336   18.62868866798198    4.66474426363973
H         1.40889052631975   18.13262190318873    5.55786967326643
H         0.95322700605605   18.86532417063056    4.01462326507319
C         3.07761769566697   21.01627784045962    3.65257195533412
H         3.40404444749727   22.02324134893265    3.93042187418900
H         3.96189028472571   20.48670850509983    3.28644319146305
C         1.65485924791805   22.41854558983730    6.52747023695165
H         2.43306282962742   22.13614108157819    7.24420513112616
H         0.84962540809247   22.91707873578509    7.06364631131744
H         2.08290874702022   23.12625123985389    5.82082387528147
C         2.79893657648703   17.71594897272070    3.96607417177971
H         3.11670354581732   18.13705196297958    3.01511240134143
H         2.36435735656946   16.73625696393913    3.77748606979390
H         3.68508037244573   17.58759624005319    4.58644473272203
C         2.02699295009129   21.09373477703655    2.55276351235945
H         1.74606693353158   20.10344484287147    2.20391316572745
H         2.42913966682619   21.64508342795896    1.70430215865481
H         1.13084147740749   21.60956583090862    2.88948521205258

