87
CSD_code = MAQXOR | q = 0 | S = 0 | Stoichiometry = C34H44N6NiS2 | MND = 6
Ni       10.07664886664729    4.76491166195687   11.49338226662321
N         8.87641923053699    3.40604987532686   11.34931785656482
C         7.97411372685325    2.84127276458919   11.85039197332627
S         6.74577440777014    2.02264306772677   12.43152243759263
N        11.16495456333742    3.92559689457783   10.04442163911722
C        11.64794725327234    4.64744421969001    9.03546218181234
H        11.40237970512358    5.70044565280595    9.02939576082005
C        12.43546831803866    4.11164040716771    8.03396922121567
H        12.79507612426663    4.75498059992067    7.24634790740706
C        12.75802657290398    2.75865359892295    8.05457106885128
C        12.24504114618099    2.01601510776673    9.11116949202210
H        12.45310662950595    0.95936569041326    9.18886527189029
C        11.46134820199308    2.62928314381600   10.07257511319147
H        11.05568980441910    2.05463599729825   10.89401641941621
C        13.61461973736996    2.12529256216889    6.99150245958406
H        13.73097912874523    1.06321915214668    7.23322822131521
C        15.00298040655761    2.76831966603340    6.96616705229882
H        15.47347403783602    2.69611078312755    7.94422585680544
H        14.93942231423863    3.81830517620495    6.69232261923907
H        15.63495233513638    2.26222525560871    6.24034249042617
C        12.93696793574154    2.23609910016929    5.62381633058541
H        12.82742480993588    3.27672079847194    5.32917579555606
H        11.94978455154486    1.78001795186991    5.65084156744594
H        13.53275011273030    1.72684847781533    4.87020142679250
N        11.26307694662559    3.53378292246113   13.02054829614518
C        10.62856610658552    3.08740408092925   14.10247500700039
H         9.57601160735966    2.86345913781227   13.98213516504442
C        11.24394131513218    2.90265919760951   15.32801456557234
H        10.66786896933991    2.54517678401766   16.16875312088901
C        12.59822899241806    3.18168927497795   15.46763860005736
H        12.56686695179373    2.67772607968408   17.52749216872078
C        13.26866766566347    3.60687586657390   14.32528823898793
H        14.32416905876639    3.82724426463032   14.34879274928483
C        12.57087575882987    3.75853183311195   13.14244170794517
H        13.08602617321220    4.08501164426413   12.24810985251261
C        13.29983047109872    3.02405427511290   16.78987065139396
C        14.41157830983234    1.97757619552390   16.68972544645206
H        15.18150895283320    2.29668273097050   15.99170045711398
H        14.00896733197014    1.02629643759742   16.34761334437571
H        14.87227227286267    1.82808362359494   17.66343816109856
C        13.85792336270375    4.36985937028217   17.25754356004777
H        13.06108149463358    5.10675242089795   17.33239903539990
H        14.60229991615771    4.74397685152021   16.55940000804400
H        14.32425113249811    4.26351004497185   18.23432448352298
N        11.27774186017165    6.12819089237678   11.58018558651326
C        12.03764511283770    6.72091744945986   12.25430148091040
S        13.08001918828998    7.57866801076725   13.08768252806230
N         8.91888057798034    5.92580165584734    9.86526200826248
C         8.18771333521417    5.28489435524600    8.95696969239479
H         8.36352841437918    4.22036328623264    8.87104973432522
C         7.24300312695538    5.90498522033591    8.16001297247719
H         6.68467359430872    5.32078943797419    7.44523623982980
C         7.02542044177709    7.27279783738190    8.29149288094309
C         7.79955056010595    7.94061704559168    9.23299504113967
H         7.68605833430515    9.00468419898202    9.37933625159646
C         8.72371832996564    7.23539089197571    9.98479497622828
H         9.34189473884963    7.74339238757771   10.71443129136801
C         6.01175721600802    8.00232343401309    7.45026644904225
H         6.00665314499263    9.05460686288030    7.75592827927547
C         4.61047142516584    7.42960773202396    7.67256359197799
H         4.34492714616287    7.47209069164591    8.72668553047831
H         4.55819345116720    6.39381451233882    7.34709999890013
H         3.87869653237643    8.00310600442316    7.10846327413669
C         6.39984255520958    7.93328215423166    5.97139739633305
H         6.39646824670889    6.90475650976087    5.61883471146763
H         7.39524821620713    8.34569943095705    5.81984794227358
H         5.69408882759301    8.50404515163130    5.37247682824127
N         8.98727952022431    5.61900858099733   12.93080816790376
C         9.52409190929231    5.98229215442687   14.09357437037009
H        10.59835070216428    5.91061065900496   14.19056161149860
C         8.77776857459511    6.45378082463112   15.15774984045575
H         9.27875833344888    6.72668477384541   16.07427424603453
C         7.39854318326946    6.57311295497835   15.04250512095165
C         6.84921857149549    6.21207915982058   13.81702293018268
H         5.78728353858130    6.27911404211936   13.64165269470365
C         7.66659299386159    5.74775438001691   12.80530301906588
H         7.23133286243161    5.46004468524847   11.85871914069182
C         6.55274751418114    7.06260692252006   16.18619628632198
H         7.21750113128764    7.31518960916493   17.01960449167852
C         5.77895690518401    8.32169035314678   15.78963014149186
H         5.06908754863428    8.10716664417940   14.99488314381274
H         6.46176631640796    9.09470844924899   15.44354947280931
H         5.22867980927314    8.70456642472969   16.64573761468397
C         5.59893841273863    5.95736217831445   16.64598805612853
H         6.15672259030345    5.06886402200087   16.93314305385041
H         4.91005561935173    5.68556145861379   15.85038615990632
H         5.02076687554931    6.29562592716000   17.50255870181860

