33
CSD_code = MARDAN | q = 1 | S = 0 | Stoichiometry = C6H18N5O3Zn(1+) | MND = 5
Zn        1.91667275176725   12.55870983883573    6.60724048105415
N         3.29521056008903   14.05091683844176    5.76146984587160
C         2.43918915828076   15.17676948878330    5.37254371916582
H         1.85792739122687   14.86697792882792    4.50272194944732
H         3.03992452125930   16.05247134152917    5.09905081079665
C         1.46756374456065   15.55056597453014    6.48887885527629
H         2.01075180472603   15.96706238063397    7.33787357670620
H         0.78461884416962   16.32186464422978    6.11944712977787
N         0.74875029023942   14.34227617970081    6.91467553579715
H        -0.03283574669132   14.19015848736163    6.27597144965283
H         0.32962555156801   14.48659189089881    7.83098400399509
C         3.91079354398268   13.44890504881253    4.56995486879389
H         4.09483074566093   14.20067446079390    3.79652285164542
H         4.87187310461688   13.01077270126070    4.84499217104669
C         3.03313935877658   12.33018409102421    4.01708962006912
H         2.06159038625283   12.71739690694251    3.70540193187581
H         3.52583016125736   11.87955570939361    3.15006796132637
N         2.79989826133883   11.35449435661279    5.09174774525868
H         3.66096068391262   10.83964739092766    5.27124866659137
H         2.12205366089397   10.66863670181155    4.76424448091404
C         4.27896393857713   14.42516006191446    6.78723555490883
H         5.22712090977374   13.93316046160123    6.56480821536135
H         4.46138235220041   15.50360144860390    6.78117353732170
C         3.85444057960210   13.99204748687685    8.19793423756501
H         4.72012481833356   14.08445289227081    8.86198831376015
H         3.06494983004089   14.63544985005007    8.58373129778430
N         3.33534810646925   12.62280528640500    8.15286031735777
H         2.88841321269570   12.38140925183527    9.03372576436148
H         4.10596902889028   11.96771582753269    8.04284870414545
O         0.78737476627545   11.29371189413351    7.60487931511583
N        -0.06595626016034   11.21872112268313    6.68650876535631
O         0.16570940817032   11.92078858775363    5.67890900293425
O        -1.02480946875821   10.53044346698811    6.77366931896470

