70
CSD_code = MARFET | q = 0 | S = 0 | Stoichiometry = C37H25BF4FeO2 | MND = 8
Fe        3.46224522746958    7.41000790695721   16.32908414760077
F         3.93408146594148    5.83132367457944   15.08262647999340
F         5.73623660720245    4.89785069594373   13.93705454299940
F         5.22497905212360    7.11922424803502   13.76438943235560
F         6.03345996151932    6.30683029067390   15.70606383718046
O         2.30810888537949    9.13530091112615   14.32463138585776
O         5.49371383191044    9.36819407852365   15.68654046123112
C         1.85825228918652    6.42013122806663   17.58891984208394
C         1.90063885779712    7.81103164218674   17.85591260746240
C         3.21325893498330    8.11835694422254   18.37270728303437
C         3.93690572210965    6.88833046555614   18.51047127879723
C         3.10870426714617    5.84368493473324   18.02417152748666
C         0.68387666285311    5.66034944614808   17.14075040143571
C        -0.53398471047098    5.79737145925689   17.80258914248502
H        -0.61142924889432    6.46724313351394   18.64690363388918
C        -1.63456756329358    5.07027946871596   17.38826209378430
H        -2.57461484771971    5.18058930349973   17.90837924391035
C        -1.53205073802337    4.20301078765560   16.31343682811278
H        -2.39348617292241    3.63680103139800   15.99236047818308
C        -0.32315345453834    4.06529761781800   15.65041353066563
H        -0.24060497524111    3.39361114866700   14.80940746986743
C         0.78113283075519    4.78903050872274   16.05879634144488
H         1.72049047132670    4.69547409741270   15.53547615550464
C         0.77210156090623    8.73824084999844   17.73290472204089
C         0.48898443132060    9.64111646627624   18.75614193095910
H         1.11326311205632    9.66580780900423   19.63670347786226
C        -0.59621588091642   10.49217259775707   18.65490084522213
H        -0.80447471552410   11.18825169271787   19.45363973239382
C        -1.41311565827822   10.45186226225634   17.53792732008602
H        -2.25756133598240   11.11979357115985   17.46006473646914
C        -1.14439442425955    9.54956471561560   16.52065801781175
H        -1.77908856574119    9.51227555592990   15.64835572151490
C        -0.06179315337169    8.69769856295725   16.61593793590572
H         0.15386581307293    7.99962999142746   15.82056241869928
C         3.63714659028045    9.43174675401487   18.86933776684199
C         4.22432232872401    9.55981694516633   20.12586322433993
H         4.36852031940771    8.68448272267617   20.74106340347749
C         4.60894948958580   10.80416334787750   20.59132787310051
H         5.06418009949086   10.89106398761915   21.56649816700748
C         4.41301394164726   11.93197621276106   19.81303703315824
H         4.71862683961632   12.90109682071812   20.17708892028350
C         3.82410514449320   11.81319191548445   18.56378846861604
H         3.67016486536740   12.68918699015822   17.95225119426253
C         3.43729644490366   10.57358416775553   18.09423585492372
H         2.98828573625605   10.47311437833973   17.11557562894879
C         5.23253398265183    6.71595818259058   19.17786328307394
C         5.36880089550582    5.76396382152820   20.18618744153288
H         4.52156662955694    5.15328695981699   20.46366412648670
C         6.57857329662484    5.60681583176374   20.83636988941545
H         6.67379090558794    4.86572073078042   21.61618840077203
C         7.66295614772738    6.39487680849943   20.48951214695831
H         8.60802956705972    6.26714349427229   20.99569483159148
C         7.53329989232891    7.34305679403956   19.48771212365028
H         8.37795999447885    7.95405812140092   19.20806384616820
C         6.32652223175995    7.50479933779032   18.83498944774463
H         6.22876236095794    8.22575525549684   18.03863083049845
C         3.43337909068784    4.42033698997940   18.02120098458536
C         2.48433585690862    3.48124265200173   18.42737042772947
H         1.50993989674436    3.80909404036090   18.75807714247660
C         2.79714583377250    2.13540770644491   18.43338524302098
H         2.05653942738994    1.41740064124543   18.75353506379454
C         4.05045874055409    1.70833346600853   18.02609534844049
H         4.28662980300756    0.65471032091311   18.02096838941662
C         4.99803676652084    2.63595193600974   17.62360067041504
H         5.97393871644566    2.30929334598006   17.29908514072674
C         4.69865991546514    3.98423991329022   17.62630224597050
H         5.43204957711018    4.70017227842717   17.29320353168062
C         2.71953359760897    8.40606436472992   15.09943191357182
C         4.75036549463199    8.54499675151563   15.93383027947183
B         5.33411503925698    6.01145691402695   14.55232471150643

