33
CSD_code = MARHEV | q = 0 | S = 0 | Stoichiometry = C13H14BrClN2PdS | MND = 4
C        -1.70973463912791    5.07542189100794    1.92703676610278
H        -1.64543908556555    4.32131529973177    1.15022409043535
C        -2.40042267131415    6.26250396593524    1.73942594431208
H        -2.88873225954121    6.46626269012632    0.80019947457118
C        -2.44991551618807    7.17083568685450    2.78502922713935
H        -2.97797483824558    8.10652164313123    2.67710637534227
C        -1.81594112191607    6.85951066817118    3.97789981614256
H        -1.84277648803558    7.54321550337071    4.81270702425636
C        -1.15302286342680    5.64459268640484    4.09067707464177
C        -0.44345580296972    5.21199661829049    5.34647560390896
H        -0.72302581883037    4.16323259341379    5.55388946714591
H        -0.73364149994916    5.83799685402878    6.19088014837464
C         1.09023250514841    5.27414520767969    5.17509141986768
H         1.41885950417683    6.32278676891086    5.10984054867542
H         1.55443464592637    4.81914021852325    6.05917958618759
C         2.41888877837801    5.00249205641879    3.24632009000483
H         2.96267408037618    5.90931962387225    3.52989983118775
C         2.78933506666105    4.42854937146804    2.00029744065489
C         3.89465382053530    4.76469123353094    1.24256640448445
H         4.63458117827290    5.47307326505385    1.57008236684081
C         3.96651343359271    4.07953497738382    0.02710788570236
H         4.75811422455031    4.19079564620483   -0.69156531283392
C         2.89226655740279    3.25069036807512   -0.14295923912259
C         1.52557648530088    1.53997066448962    4.02054194645309
H         1.54051224496924    0.74959803898567    3.26484004316178
H         1.14128691709737    1.12014869939333    4.95963536687294
H         2.54691815016592    1.90910372160635    4.17783781003515
N        -1.10517666373781    4.78467895699725    3.06973115719673
N         1.49514772433032    4.53737037721211    4.00773126578733
S         1.78501867007148    3.26018281045499    1.18946775403674
Cl       -1.22798046131490    1.58647748878025    2.77673381865646
Br        2.57010008327560    2.15149768650475   -1.62313998054098
Pd        0.28152565992592    3.06384671796611    3.44190878435009

