77
CSD_code = MARHIX | q = 1 | S = 0 | Stoichiometry = C34H34AgN6O2(1+) | MND = 2
Ag        0.00018460122690   -0.00186452862757    0.00092215458027
N         2.72958832303062    1.32890634079540    3.08979142403568
C         1.54920099920262    1.35094046392741    2.45086301121338
H         0.74464754091726    2.00064687804483    2.74082331439745
N         1.49052360438665    0.50795354419678    1.44065044618267
C         2.71839874240149   -0.11922363881453    1.41219672043103
C         3.21128337184405   -1.09868205738057    0.55916270725493
H         2.58552062842543   -1.48419139005616   -0.24060737337567
C         4.49744147680874   -1.56021114560086    0.75567122053888
C         5.29342205460627   -1.04360617811412    1.80772002374749
C         4.80337887916327   -0.06997930117316    2.65879620807307
H         5.41444227593686    0.31383097049591    3.46094552525479
C         3.51059609701321    0.39088235703047    2.45336255897601
C         5.05551275282370   -2.61372466463250   -0.14736564805502
H         5.94693963761241   -2.25006274642945   -0.65612897532322
H         4.32594542724632   -2.90798648674710   -0.89649665858262
H         5.34063733215455   -3.49647651158402    0.42270453494559
C         6.68357611646229   -1.55917208204354    2.00293832851348
H         7.28484772499235   -1.38739823257611    1.11151569155854
H         6.67192643173560   -2.63198761652836    2.18878149042825
H         7.16471888311431   -1.06841321547042    2.84411247076729
C         2.26127053372801    3.35181922326231    4.35049721293186
C         2.59757885082761    4.49330429247645    3.63325360466516
H         3.50088245058599    4.50718801091729    3.04068426344764
C         1.78223586883490    5.61020195620207    3.66868090407885
H         2.04778068888336    6.48295114169274    3.09098217186718
C         0.60642513220445    5.59059313122686    4.41029025397559
C         0.26704656170352    4.44678978028718    5.12537694232175
H        -0.65410726504869    4.43935236970475    5.68736110965937
C         1.09367359536375    3.34015989059186    5.10512548619050
H         0.82702823051975    2.45799603452970    5.66906302821654
C        -0.36033967912359    6.73453024706526    4.40767296346675
N         0.20274222539428    7.96425681278730    4.41678817580670
H        -0.40650571518828    8.76531643439307    4.45730260153822
H         1.18556689414819    8.10350976822198    4.56728230123482
O        -1.55827584507422    6.55725425730750    4.37567224179627
C         3.11379459122208    2.11557102931235    4.24610497294220
H         4.16772575207007    2.38412833070457    4.13014487622479
H         3.00922800521787    1.49908852560974    5.14653876723637
N        -2.73018292001507   -1.32974747315730   -3.08849676422331
C        -1.54987356722983   -1.35334026289965   -2.44946146712347
H        -0.74596464126816   -2.00370440028849   -2.73972636900405
N        -1.49042202645383   -0.51098367103604   -1.43878074610239
C        -2.71765521111529    0.11743268756095   -1.41010632985679
C        -3.20954562900311    1.09688082004191   -0.55649053989269
H        -2.58342630061592    1.48110390283561    0.24364120265777
C        -4.49512847745098    1.56003961706843   -0.75288595896460
C        -5.29146495832572    1.04512796446098   -1.80550049239135
C        -4.80246010722625    0.07138663535547   -2.65705352744261
H        -5.41383883908152   -0.31116342886264   -3.45956946911289
C        -3.51028412346340   -0.39122904848602   -2.45165288594068
C        -5.05214621340528    2.61350385184593    0.15086106115059
H        -5.94420347013300    2.25054987317353    0.65902560103519
H        -4.32244575150734    2.90618049643701    0.90048575337146
H        -5.33595002010459    3.49712490262694   -0.41852118233660
C        -6.68084807844593    1.56274643827515   -2.00079513195521
H        -7.28264980829767    1.39119417139898   -1.10968863627140
H        -6.66761526390852    2.63568106492945   -2.18585622304845
H        -7.16241663239757    1.07328414613295   -2.84247740801871
C        -2.26279136672118   -3.35187785876998   -4.35102797187405
C        -2.59900854367319   -4.49398155146002   -3.63472080697889
H        -3.50195609213831   -4.50819856906394   -3.04162291396756
C        -1.78398922407775   -5.61106955607475   -3.67171593846325
H        -2.04951116766465   -6.48427171047336   -3.09467939411228
C        -0.60851648260116   -5.59102266462963   -4.41387626949965
C        -0.26915303534785   -4.44655872669655   -5.12790058803032
H         0.65172019634324   -4.43884367035622   -5.69032049887714
C        -1.09553100543688   -3.33976836565890   -5.10618929833430
H        -0.82888518131613   -2.45709191143957   -5.66933663478270
C         0.35826510987014   -6.73506879363040   -4.41268239497532
N        -0.20496577404463   -7.96454014472524   -4.42475695476133
H         0.40309836194754   -8.76645825902339   -4.46481662596849
H        -1.18845253484318   -8.10227146691490   -4.57289401769274
O         1.55618268505405   -6.55749991799450   -4.37990978044370
C        -3.11497730478576   -2.11549471430336   -4.24524645174283
H        -4.16894945269282   -2.38387040600293   -4.12917150204880
H        -3.01054092581870   -1.49837199525191   -5.14526349711274

