119
CSD_code = MARJEU | q = 0 | S = 0 | Stoichiometry = C68H42Cl2O4P2Pt | MND = 4
Pt        9.89234209546298    6.72979320539793    8.76435084793915
Cl        8.94866218926499    5.15843758957583   10.17291174697831
Cl       10.92718789236430    5.23868265155436    7.33321505967807
P         8.95158130325774    8.06015465878653   10.33194491551278
P        10.74880146706314    8.13809341919188    7.21945869534733
O        10.01877287839539    8.27632592832145   11.52204672338635
O         8.73458806780783    9.60277020754378    9.82546281656923
O        10.87384452875788    9.68193396224849    7.75256785787692
O         9.67033876266672    8.31023335241729    6.03233711773126
C         7.46403285431712    7.75632454816402   11.32595501135342
C         6.38840826811727    7.12521527324711   10.71925229341794
H         6.50373266511985    6.73049971838690    9.72084618940542
C         5.19478384156861    6.99056341152182   11.40321353076931
H         4.35867383975197    6.49384528953354   10.93398157905806
C         5.07610849620508    7.48908601997999   12.69068485613981
H         4.14403604817185    7.38421202274071   13.22636463923860
C         6.15293947800314    8.11463277998722   13.29676876220524
H         6.06145974745773    8.49731136664081   14.30261142985555
C         7.34977402891711    8.25337393713455   12.61672582689430
H         8.19307304590318    8.73669706210011   13.08756568904542
C        11.18653052697196    8.89346945267750   11.06907620752126
C        12.30317443850004    8.07646019450436   10.73113740350800
C        12.21690539107278    6.67320524183313   10.80326201666335
H        11.31166315049183    6.21376697374803   11.17643148448085
C        13.30187913725051    5.89627335667809   10.47665712297600
H        13.23069989336765    4.82087003600520   10.52203146294863
C        14.49563094537737    6.50462411165375   10.08774529120818
H        15.34708074178433    5.89178730149020    9.83025308366873
C        14.59971192426301    7.87468362536702   10.03076446757442
H        15.53805794090206    8.30864354607856    9.72375510527505
C        13.51062371875914    8.70413290042773   10.34157965353205
C        13.55500606337598   10.14326750351458   10.23762522205976
C        14.72609060291704   10.83990426803090    9.89538321000504
H        15.65357547319420   10.30222578639392    9.77830535229330
C        14.72277742316881   12.19890306197917    9.70234057497332
H        15.63903542719715   12.71100518941883    9.44853173440367
C        13.53399706279384   12.91962686107381    9.80981144239503
H        13.52550860656110   13.97992181215851    9.60704462158403
C        12.38277646485550   12.27824380038876   10.18644820386515
H        11.46114566460884   12.83147890100530   10.28533393583136
C        12.37822622989054   10.89961189204221   10.45640973133862
C        11.19482685496974   10.24937382278452   10.93705051861489
C         9.96962215251758   10.98318576270404   11.32492932494653
C         9.99945296289961   11.99379508632423   12.34516731753213
C        11.19008720213158   12.28873614963121   13.03247757077067
H        12.08322525507545   11.72996225745239   12.80178287845377
C        11.23100046323186   13.26308057596284   13.99603171185475
H        12.15428428573056   13.47488470602418   14.51392140831857
C        10.07598750899894   13.97906481538306   14.30676167990640
H        10.10994556430508   14.75926505837690   15.05255215946874
C         8.89158687706715   13.67618186833670   13.68306047211452
H         8.00796973203046   14.22762264422811   13.96097169124799
C         8.80865868054455   12.66769705431950   12.70868909118452
C         7.55489192701853   12.26290884931758   12.12082973133189
C         6.32048829152372   12.81849462210540   12.49280492490818
H         6.28644188886858   13.63211168744576   13.19931180214606
C         5.13622398495602   12.33615841754466   11.99236049266157
H         4.20136545471707   12.77430681057054   12.30952732944744
C         5.13283062223549   11.27673713489835   11.08663117595981
H         4.19930942106018   10.88688109894794   10.71173324128450
C         6.32103739652779   10.73387560022636   10.67441973398766
H         6.33413790232749    9.92249493524763    9.96444564960438
C         7.54083655696691   11.21048664562493   11.17599756907977
C         8.77497916281583   10.61225778288924   10.77727008418236
C        12.25222737292572    7.94188077068178    6.22235494816646
C        12.33746479995141    8.46720854068147    4.94057125581297
H        11.46625842929839    8.90431951227210    4.47541127076367
C        13.54215716312039    8.41587382052281    4.26210561448550
H        13.61146806655284    8.82035278346019    3.26305440616785
C        14.65525292880782    7.84971265502020    4.86105698427438
H        15.59345735386138    7.81403550017200    4.32699067105799
C        14.56543925649765    7.32188143563059    6.13913544020241
H        15.43037246062207    6.87141052297165    6.60276912895961
C        13.36409537857280    7.36874676687326    6.82118499165417
H        13.27131171124829    6.94989247013671    7.81199109398217
C        10.77111655160419   10.70466523141780    6.81973425726253
C        11.96569841321835   11.38598528031717    6.43412470829209
C        13.21278574412295   10.97649912912552    6.92777123739151
H        13.25019675134014   10.15178999047956    7.62133802981801
C        14.36476127238255   11.60095258590694    6.52837586182553
H        15.32075755526851   11.26317517929879    6.89710037234672
C        14.29534182227607   12.67575112630755    5.64368737171869
H        15.20106659269080   13.17759591380554    5.33652775573917
C        13.08334796329253   13.09301121485155    5.15117328673183
H        13.06658948024339   13.92083563638321    4.46073698554778
C        11.88597583966478   12.45445713015060    5.51071787893347
C        10.60907977393283   12.79342243201067    4.93101341816048
C        10.46287730542261   13.81610427659919    3.97911088106387
H        11.31058571928493   14.42655544735318    3.71295902218203
C         9.26089587080832   14.06001938258835    3.36326153335958
H         9.17771776672510   14.85341183022815    2.63546784534247
C         8.15239435199595   13.26802044247157    3.65858969827230
H         7.21672275041314   13.43482510337168    3.14651427631407
C         8.25478229768200   12.27646043262371    4.59974342540526
H         7.39799130362348   11.65895223445038    4.81821935522161
C         9.46244471670939   12.03998468919523    5.27993409139012
C         9.55558223878115   11.01208204118626    6.27887662556712
C         8.37784510405222   10.19786691543900    6.65263223528829
C         7.15836229600234   10.76668874850712    7.14602430792887
C         7.07308755156015   12.13653511539109    7.44561847060753
H         7.96070401274420   12.74477269408793    7.35940294117993
C         5.88656710665527   12.70072517559089    7.83586468283022
H         5.83300042513735   13.75492823267019    8.06216530204421
C         4.74235356927197   11.90908143649930    7.92708393555794
H         3.79787783477976   12.36077985129366    8.19188888451412
C         4.81877299251180   10.55669837317911    7.70479252610337
H         3.92469985869486    9.96298823508130    7.81049003798496
C         6.02858718514236    9.93765636924983    7.34829579177046
C         6.15852875965232    8.50610225804346    7.21547958272537
C         5.11999065162810    7.60741888068108    7.50622962853310
H         4.15608478070013    7.97885701383308    7.81606470021138
C         5.30606816486607    6.24734134434090    7.42491960894684
H         4.49175397464591    5.58010709534134    7.66683603936378
C         6.53557870523555    5.71870183410789    7.03092238618354
H         6.67142380353200    4.65046593932357    6.96727821114019
C         7.57266865764674    6.56499432632353    6.72163819880392
H         8.50488570887255    6.16730692193643    6.34393918015277
C         7.40205131308282    7.95905672990152    6.81770186067945
C         8.46766206623877    8.84759939351652    6.49580728857968

