70
CSD_code = MARJUL | q = -1 | S = 0 | Stoichiometry = C34H28BF6Hg(1-) | MND = 3
Hg        0.74524786642675    5.60322883182103    6.15150682612312
F         3.18391208452224    5.09490375873257    5.87639966137775
F         0.43843929706484    2.98197964853830    3.75626242279264
F        -0.77241561429248    2.80064572870807    1.34327214932559
F        -2.54973635371894    4.72099240575419    0.55582449640560
F        -3.10884070238788    6.81510631887451    2.22174769264518
F        -1.86029431364854    7.01036330545329    4.61842229819751
C         3.76466919340445    7.06841109567869    7.29801379136498
C         4.90515987488034    7.76440222256832    7.64731321350531
H         5.64474318357741    7.95940538677555    6.88380866246794
C         5.17299516820045    8.21925714872157    8.94080106937918
H         6.08973856692095    8.75916180902476    9.14142720941690
C         4.28706078177728    7.95249750583486    9.94223245598977
H         4.48037084628861    8.26320160144440   10.96149080018471
C         2.18579842819559    7.02369417830533   10.71662180224435
H         2.45834918146815    7.35002661950501   11.71278565231864
C         0.99608709032483    6.40366273079645   10.48709488922042
H         0.29961307544670    6.21317165331085   11.29319873151198
C         0.66042894406076    6.02536928918464    9.17852073057487
H        -0.31245695525529    5.56571526512270    9.02844499153088
C         1.51419049490650    6.22853020013360    8.11372250127380
C         2.79133807315185    6.83887000378616    8.32786137145129
C         3.08888053569795    7.26682178413952    9.66168297075593
C         5.23505369465762    6.39128221929729    5.16677213468280
C         6.07592016435861    5.35254585305916    5.60324794490936
C         7.35637424968686    5.20156514826232    5.08872880842978
H         7.97341505806444    4.38149324724502    5.43722535801357
C         7.87059269833093    6.07405782200446    4.14529470189269
C         7.07250063047075    7.13451175388267    3.75629719730812
H         7.46187701983900    7.85297995892538    3.04404778254947
C         5.78598648607622    7.30442209390270    4.25420194777130
C         5.64537549166381    4.36706970920738    6.65152036725584
H         4.99416888883267    3.61064231785248    6.21734287912608
H         5.08980358543917    4.86458706014295    7.44164814554170
H         6.51243768407203    3.86819403446137    7.08447777375846
C         9.26109160877078    5.89750322356991    3.60357733816146
H         9.47556300992853    4.84413506093956    3.42750166769058
H         9.99753322120887    6.27440111344588    4.31616026950246
H         9.38495396952803    6.44128689939243    2.66866550576810
C         5.03732873868485    8.51869955565090    3.77844474511104
H         5.72607642623442    9.23264378852571    3.32645974404929
H         4.52193781197393    9.00326120563956    4.60114505477214
H         4.29112148920247    8.24746918112986    3.03400557523853
C         2.61210453588929    7.19809253434510    4.74065216950887
C         2.33827097145418    6.53789918433188    3.52087203922407
C         1.40464341251744    7.04320904257947    2.62255879905237
H         1.22651674907187    6.51277139156352    1.69371419721549
C         0.70547243935028    8.20912969039022    2.87652186056338
C         0.98149301004528    8.87557065689285    4.05851417327011
H         0.45914843618778    9.80106357060409    4.26863281229516
C         1.91093069905830    8.39916801302285    4.97596479768269
C         3.07398263505989    5.29379658577429    3.10680189024158
H         2.97415650483763    5.13119939545474    2.03402706380973
H         2.67658534684435    4.42099890348238    3.62249454485696
H         4.12704665560926    5.36723792460733    3.36354599849742
C        -0.29945703813153    8.75712839531411    1.90555766468704
H         0.02089324944616    9.73158187179793    1.53429681853802
H        -1.26593583729985    8.89023143203875    2.39053665862366
H        -0.42458636158685    8.08919043590679    1.05533417947585
C         2.15012492094945    9.26463828031913    6.18636376688472
H         1.61296856351622    8.87767914534333    7.05241912240647
H         1.79435528387960   10.27698445249106    5.99630377065605
H         3.20385584420455    9.30406096339110    6.44479678677988
C        -0.63640080524334    5.02219538466930    4.26817548284358
C        -0.40766196787789    3.96769049227949    3.39267359959776
C        -1.02778047386016    3.84799932198245    2.15324944310245
C        -1.93303286936486    4.81899278974694    1.74935088132959
C        -2.20820981716418    5.88381646407471    2.59547371638788
C        -1.55345620727269    5.96408719144405    3.81859413330092
B         3.70648144582158    6.49421674738640    5.76025229756929

