103
CSD_code = MARJIY | q = 0 | S = 0 | Stoichiometry = C58H36Cl2O4P2Pt | MND = 4
Pt      -16.28647634025642  -26.92110028357719    8.96927109780568
P       -17.66468724939838  -27.42511763213032    7.23596333792592
P       -15.70382710828375  -25.22461025821693    7.57636815539270
Cl      -15.00840527357021  -26.12453307001765   10.69503030184439
Cl      -16.82657451810707  -28.82307545022311   10.12630078609814
O       -19.11293477538583  -26.76480453509947    7.51482929355155
O       -18.03644665249522  -28.91553795345833    6.77309108823658
O       -15.31292650415790  -23.74347751228615    8.05375865183227
O       -14.40836291775030  -25.68038673960081    6.72424008934924
C       -17.27848966348494  -26.45213791387873    5.70777425956645
H       -16.46280261882888  -26.95304839290032    5.18129693640494
H       -18.15979092399812  -26.43619599018944    5.05952987805094
C       -16.85450852914970  -25.05606885557935    6.13462909003763
H       -17.72259302057133  -24.47596747806207    6.45606101482578
H       -16.34656635604235  -24.51485953429261    5.33069435506926
C       -19.65401813099353  -27.39070686398412    8.65679333714511
C       -19.39861403360214  -26.80842013947733    9.92810297022327
C       -18.69025556772684  -25.59602952314011   10.03654153171049
H       -18.46698622873480  -25.02880352551542    9.13970911849454
C       -18.35480843337995  -25.09756717540233   11.27195954019149
H       -17.79413021875805  -24.17941600401063   11.35430339569281
C       -18.73121581539583  -25.79493054302834   12.41939929555686
H       -18.44698024501084  -25.41421409026847   13.38889589674212
C       -19.45086168290926  -26.96152778173718   12.32872733062922
H       -19.71956894429195  -27.47186291521476   13.23930885649353
C       -19.80298465814897  -27.51152141635740   11.08650510995225
C       -20.47768556527091  -28.77902268511733   10.94082941188912
C       -20.90839700902601  -29.52770961766599   12.04797372404861
H       -20.78762217482609  -29.13022179633846   13.04251502862299
C       -21.48018747979143  -30.76683787236271   11.90147767099426
H       -21.80238191285623  -31.31872798383616   12.77217523517026
C       -21.62715139880341  -31.32555568372828   10.63285841765871
H       -22.04641224574470  -32.31450817184643   10.52234085731406
C       -21.23422960827364  -30.61558970945817    9.52798892785945
H       -21.33764596123425  -31.05056489908597    8.54570255284053
C       -20.68590005596095  -29.32827593126564    9.65200194005826
C       -20.26384295257204  -28.59540312028970    8.49302073449878
C       -19.31006618004293  -29.26688242721186    6.32363431233563
C       -19.38570588432060  -29.83229734887418    5.01374143175596
C       -18.22628097575863  -30.01009525136869    4.24155941489832
H       -17.27781395771283  -29.69963431471622    4.65275213393698
C       -18.29213247118347  -30.58430977934828    2.99856598514145
H       -17.39575432206320  -30.72053006541050    2.41233778205638
C       -19.52408866646404  -31.00235366890499    2.49638249533183
H       -19.57619296212388  -31.46454710364047    1.52175851978600
C       -20.66972104667902  -30.83097578987075    3.23418566329669
H       -21.60501832374868  -31.16932202162208    2.81846686734744
C       -20.64235588808893  -30.23632234040407    4.50555433462721
C       -21.82848547711439  -29.99781295232966    5.29137825892083
C       -23.11856567683143  -30.28270362401289    4.81483631152633
H       -23.24578564931461  -30.72132207882310    3.83827696762796
C       -24.23728570822517  -30.00388398441478    5.55972352762938
H       -25.21706279406304  -30.23425904656525    5.16846724153045
C       -24.11257547607445  -29.40736694832760    6.81364530253007
H       -24.99462582439965  -29.16605118987035    7.38736868371145
C       -22.86723332172829  -29.12443120355015    7.31229744763714
H       -22.76833811635590  -28.65189936475219    8.27717436253886
C       -21.70622298137771  -29.43036690660787    6.58148000660590
C       -20.40915627593377  -29.12231928731495    7.11781015858157
C       -14.31320197908832  -22.99465774661448    7.43120999903528
C       -14.70673358978204  -21.72684237400028    6.90305299586620
C       -16.03296231181270  -21.28081962216620    7.02254029717404
H       -16.75212731104745  -21.92049356256386    7.51107289000137
C       -16.40465773600489  -20.04966945779735    6.54796073016426
H       -17.42546992676277  -19.71226032914834    6.64694947141882
C       -15.45393650000773  -19.22749757777049    5.94395503975891
H       -15.74291053958798  -18.25306541287053    5.57900936842587
C       -14.15343121175052  -19.64897039400815    5.81253786335054
H       -13.44238655603490  -18.98668166457307    5.34575050827061
C       -13.73905681836371  -20.90756800781084    6.27609883191158
C       -12.39382863784996  -21.40395642491395    6.11708683583986
C       -11.40594326762556  -20.69330626646964    5.41598695019054
H       -11.63553575357779  -19.72757417937245    4.99538475489459
C       -10.14480327812769  -21.20450565386840    5.23601339606535
H        -9.40498482944572  -20.63617970046619    4.69214632527737
C        -9.82163670721024  -22.46401977219924    5.73890101196196
H        -8.83658125319257  -22.87446930690847    5.57574977237830
C       -10.76025035991418  -23.18053978244759    6.43547722381630
H       -10.51680280496777  -24.16077345386827    6.81491252964944
C       -12.04880633413305  -22.66493157345709    6.65764956608860
C       -13.02361173525197  -23.43503002294591    7.37971246378664
C       -13.33641688909307  -25.83862809595949    7.62660051248583
C       -13.12342033172861  -27.12091510627430    8.20184718690309
C       -13.91242687153444  -28.22304698145805    7.81950023580761
H       -14.58598291755296  -28.12742672820986    6.97495790486350
C       -13.77224143595557  -29.43076277406142    8.45913159887851
H       -14.39131673509009  -30.26921038367604    8.18009601227927
C       -12.83444287769963  -29.56115598766340    9.48289915029562
H       -12.74200072114963  -30.50388434642812   10.00095215724384
C       -12.03472469968835  -28.50372762222243    9.84259438368487
H       -11.32404050643237  -28.64480112691786   10.64061758735817
C       -12.15343533422371  -27.25022613363264    9.22275693990161
C       -11.39734610754251  -26.08904901340224    9.62656351736404
C       -10.41532937822249  -26.14819967805572   10.62853476881318
H       -10.16938888106751  -27.09474030617465   11.08161825883460
C        -9.75464040389255  -25.02407250004860   11.05718467250179
H        -9.00328617048075  -25.10132918403865   11.82919964395768
C       -10.06511946454379  -23.77842184892888   10.51392825307019
H        -9.56777593019582  -22.89096664856511   10.87599629016171
C       -11.00596417047429  -23.68539908139100    9.52124902141349
H       -11.25493473676399  -22.72073469490749    9.10620393627470
C       -11.66391334389150  -24.82856540885265    9.03809781738566
C       -12.65745189679920  -24.72369831637931    8.00844489603801

