35
CSD_code = MARKEY | q = -1 | S = 0 | Stoichiometry = C15H12N2O5V(1-) | MND = 5
V       -10.82589393416984    0.06643150932705    3.53793334335332
O       -12.17133356976700   -0.68621930846898    3.61285617570936
O       -10.07261471015587    0.04261485354341    4.88186030665054
O       -14.52646583382528    5.22283411223369    3.52651979770556
H       -14.28591664777514    5.19412642478546    4.46044470138030
O       -11.25081299026148    1.82669964267310    3.53517962377685
O        -9.65516335124460   -1.19996556146520    2.78139571952032
N       -10.15695869329870   -0.45446636643813    0.69028915304727
N       -10.83052465588040    0.49880465265478    1.38638493563099
C       -11.62973455141820    1.28676646730909    0.74616479015420
C       -12.12835005909572    2.48487453814394    2.86728918232143
C       -12.87384177924869    3.48516721801723    3.52984476484064
H       -12.69782374855076    3.60891568981468    4.59177016728092
C       -14.01761953782435    4.08156757027363    1.50371385495824
H       -14.74623394125089    4.69733742873624    1.00015492896199
C        -8.85622176661250   -2.44107996611324    0.92487812618972
C       -12.35943298085297    2.30167862121932    1.46780515116028
C       -13.30313058413663    3.11666047165118    0.83235029464891
H       -13.49154307420508    2.98669181721440   -0.22298284889616
C        -8.66896390165818   -2.55367797280351   -0.45017531118433
H        -9.08038421462567   -1.79164261701786   -1.09336353245871
C        -8.33282360913602   -3.41757201576351    1.76914448408377
H        -8.49276325767211   -3.31264574185261    2.83288563612703
C       -13.80067360350153    4.26027186247750    2.87115507542942
C       -11.82534287313529    1.14443280788757   -0.74500011314156
H       -11.14864369609049    0.37506715743622   -1.10866024115425
H       -11.61294725664219    2.08563733833173   -1.25043894226564
H       -12.85039585138708    0.84900134404842   -0.96395346155365
C        -7.44806136163024   -4.59443849740931   -0.12440732671255
H        -6.90007016868950   -5.43229141528797   -0.53435540820466
C        -9.60098123580897   -1.30505997741310    1.51705971505627
C        -7.96720222674224   -3.62531322826817   -0.96894775169320
H        -7.82242620619963   -3.70993996277760   -2.03776611535893
C        -7.63343045180741   -4.48798131895085    1.24486699972870
H        -7.22987367569894   -5.24478757774860    1.90360412490788

