63
CSD_code = MARNOI | q = 0 | S = 0 | Stoichiometry = C25H32ClN2OPPd | MND = 4
Pd        0.40621442660261    3.83675106236833    6.80553007669110
P         2.25048055966127    2.62178044441378    6.82411268568449
Cl        0.46987104833004    3.76891922594967    9.15611094397246
C         0.33390563457245    4.13872078241966    4.82811926445118
N        -1.42698008542179    4.89836274218962    6.75672780415170
C         1.34665539695059    0.79410345264455    5.06786518686186
H         0.43031188304898    1.00089315482381    5.61983366547663
C         2.49852672177949    1.48874990080737    5.42358556113065
C         1.37416037272180   -0.11181576746032    4.02646260631083
H         0.48091305486481   -0.65112077776717    3.74706634142808
C         2.55592914404125   -0.31878109965493    3.32974879080430
H         2.58230446573838   -1.02360415904160    2.51161623026554
C         3.67463372831506    1.29256400582054    4.71685019501153
H         4.56229051041408    1.85481408501692    4.97050103022416
C         3.69903100684440    0.38412385719630    3.67070099453389
H         4.61344865649372    0.22874427015584    3.11672276348654
C         3.70290842876378    3.73568045430425    6.90472725477723
N         2.28503109785575    1.55756286007961    8.08881402669214
H         1.87912960316929    1.95090035934637    8.93526648985106
C         3.12533607696401    0.39202121586563    8.27690283923063
H         3.85669188039892    0.56117762536286    9.07407857208867
H         3.65391510276260    0.18775284148178    7.34172093016671
C         3.43324841509829    5.09632876075237    6.79077427255809
H         2.39709891235312    5.41503356398209    6.61733416630019
C        -0.91635010657465    4.60310365991507    4.39726032668293
C         2.27840415040645   -0.83016120901670    8.64702792201996
H         1.53499607605052   -1.00599197451823    7.86835383842968
H         2.93223645677094   -1.69990852086501    8.71914112802265
C         1.36892495980131    4.11471294135472    3.90166294879764
H         2.36181512805947    3.79531009380254    4.20112347927996
C         4.99792673273099    3.30851172107623    7.17490676973138
H         5.20287038496776    2.25490252330259    7.30611304394088
C        -2.01479829360354    4.66419018813007    5.42812390570310
H        -2.75696651434103    5.44376849640587    5.19043640420489
H        -2.53543115108644    3.69725410596337    5.45105175657204
C         4.45462469759615    6.02076023125309    6.90604686427513
H         4.24573542689102    7.07675635914740    6.81584341438082
O         2.52433042732135   -0.46113300380953   10.99614962487258
C         5.74900362031761    5.58842194143974    7.14993036873231
H         6.54877414178019    6.30830970169196    7.24380342390496
C        -1.12641428380603    4.98233703647607    3.08074001921069
H        -2.10215434463506    5.33218027013283    2.77045773709731
C        -0.08863801779072    4.91431606212921    2.16692944314635
H        -0.25404889224583    5.20296969663280    1.13907826964466
C         1.16033748991295    4.49014279969693    2.58238435859130
H         1.97914039161427    4.45183783055736    1.87764257450199
C        -1.02418740234746    6.29791565567538    6.90023713354103
H        -0.37348541063717    6.58423089816057    6.06759253655448
H        -0.48098480917062    6.42493640998210    7.84293878879266
H        -1.90130675530875    6.96211963742507    6.90531683123562
C        -2.38101552078288    4.54933276250220    7.80545553035717
H        -3.30524557948513    5.13669291063708    7.70846697507745
H        -1.93818975329236    4.74076523300463    8.78408744814739
H        -2.62248016780692    3.48500385094072    7.74314218337813
C         6.01803367177871    4.23645029002376    7.29131198984737
H         7.02554625100171    3.90603967127612    7.49897922323111
C         1.56116287812270   -0.63952336361190    9.98026382837438
H         0.89502725619028    0.23446973513935    9.93286870805307
H         0.94036789655829   -1.52285066128082   10.20253750557630
C         1.95717011957592   -0.12009265410866   12.23310515022490
H         1.39628411600052    0.82026249332699   12.16661059685145
H         2.78165085442546   -0.00272133979150   12.93355017569173
H         1.28217783274423   -0.90708534113926   12.59315508115270

