77
CSD_code = MARNEY | q = 0 | S = 0 | Stoichiometry = C30H36BrN3O4P2Pt | MND = 4
Pt        1.17650567462747    3.55501574336364    3.08954572078085
Br        3.40182161701934    3.13065152292400    3.97775107032761
P        -0.82227193158401    4.22294787013449    2.10302779490100
P         0.12533089001409    2.50598851503667    4.93512361976954
N        -2.02221484725354    3.04595490151657    2.05130664964881
H        -1.63789358560032    2.12048929991809    2.21062134986069
N         1.14219235986136    1.99300777499028    6.15124238623135
H         2.09859123857731    1.83024296726426    5.83497526597097
N         2.00842694329805    4.28560451556295    1.57180291718438
O         2.23353148338054    3.52450042122595    0.65562378066547
O         2.19973928097623    5.48296114460873    1.56520305713769
O        -1.92777471935754    1.34100543479418   -0.14769248877892
O         2.94222030280359    0.20987774814177    7.46902114299398
C        -1.52549327846700    5.51478923864654    3.17778727040614
C        -2.85578569888037    5.90954641215918    3.10231072252815
H        -3.50391047945829    5.46844904280143    2.35898974810428
C        -3.34154345904192    6.86276484175526    3.97801063721431
H        -4.37662065101873    7.16770782170098    3.92168195264914
C        -2.50371693640382    7.42829013620883    4.92610732232765
H        -2.88907531224901    8.16977285065209    5.61022372679892
C        -1.17402070172579    7.04745645695103    4.99651777665137
H        -0.51990489553193    7.49153140676091    5.73157939483595
C        -0.68739238435630    6.09129596035984    4.12491785438881
H         0.35746554653606    5.78613041325862    4.17064879710506
C        -0.75928043383508    5.01909087433178    0.47046176248387
C        -0.50412923507661    4.21025787798511   -0.63559363892283
H        -0.43838035818088    3.13819418442211   -0.50958820065369
C        -0.33627239748467    4.78357916486859   -1.88131485570683
H        -0.13505531986559    4.15718255428629   -2.73732868137794
C        -0.40385093336278    6.16045984946666   -2.02582993284804
H        -0.25821542756592    6.60802801892402   -2.99782422318754
C        -0.64189601709789    6.96548688405630   -0.92408559906273
H        -0.67974041042707    8.03894877324028   -1.03559161623629
C        -0.81514998495009    6.40079735343511    0.32660323618935
H        -0.98176575625088    7.02761983771051    1.19108715565466
C        -3.11195971423826    2.99889794377321    1.08719598835396
H        -2.97092349721269    3.77045254567861    0.32391890801587
H        -4.06474513741630    3.18071972414934    1.60033634562705
C        -3.18128172645514    1.62764474248764    0.41991801136899
H        -3.43834458915747    0.85890901662584    1.16897699135105
H        -3.96602260899293    1.63017911003078   -0.35183856830763
C        -1.89604458475393    0.12687441828329   -0.85187647101205
H        -0.87746085737128    0.00722251355148   -1.21450565046467
H        -2.58849506284453    0.14414798267299   -1.70213042491642
H        -2.15875438384011   -0.71560426789771   -0.20050955565698
C        -1.18844359027038    3.32733960832570    5.88589147651518
C        -0.83640746420042    4.03458288006330    7.03146123485267
H         0.18876669033184    4.00379521998869    7.37208810522119
C        -1.78648099137481    4.76784441703674    7.71670423030084
H        -1.50913172383001    5.30862874981511    8.60976220297227
C        -3.09150447937110    4.81587612337431    7.25441362293833
H        -3.83406153086162    5.39031506471957    7.78811976183469
C        -3.44122500685037    4.13433133496093    6.10034591801915
H        -4.45576532853450    4.18141582814680    5.73203899910240
C        -2.49441549168085    3.39857080691562    5.41264896320912
H        -2.76295860579155    2.88110264353259    4.50264120601356
C        -0.68452915153788    0.99489881538449    4.28272460828238
C        -0.14475918097784    0.48236903055100    3.10478815493930
H         0.67494635262445    1.01301960149137    2.61844434178505
C        -0.63522874751645   -0.68931696219744    2.55864951969869
H        -0.20773833122041   -1.08087225085157    1.64791134278246
C        -1.67245895600822   -1.35762421896122    3.19020666549740
H        -2.06140916117872   -2.27353783970093    2.76926971393449
C        -2.20543350833057   -0.85997347298384    4.36905632230611
H        -3.00617461059836   -1.38989630883585    4.86438723354043
C        -1.71105677699213    0.30960179509027    4.92049211581132
H        -2.12632996086835    0.69608595842740    5.84072585431432
C         0.74203389989469    1.01767240957085    7.15330231288309
H         0.52400215122512    0.03593590964233    6.71328257566980
H        -0.15216321345192    1.38221692780581    7.66636408445831
C         1.88933935789234    0.85487695748873    8.14388488421789
H         2.21260696226708    1.84419851332326    8.50058362392915
H         1.56390327822234    0.26001828950697    9.01220822029997
C         4.15538956182076    0.22053260080568    8.17616523956811
H         4.88052185714126   -0.29199604743328    7.54857058955071
H         4.06223332539452   -0.30318465557673    9.13592658542736
H         4.49569435519758    1.24600072755212    8.36173184036591

