93
CSD_code = MARRIH | q = 0 | S = 0 | Stoichiometry = C48H40F2P2Pt | MND = 6
Pt        9.24912405173435    3.76589277456219    4.70857795281915
P         7.76191710673915    4.03253486724243    2.92384686400552
F         7.80834098843197    5.23852946779637    5.27635545803731
C         7.97495886561588    2.40200338964217    5.52851048910050
C         7.33715062680513    2.77512944149752    6.70282629083768
H         7.54779508518323    3.73294477907453    7.15887727980850
C         6.40063531532656    1.94545527941380    7.29809956761631
H         5.91524989641784    2.25859102368262    8.21144859797856
C         6.08745960739631    0.72660311547293    6.72514099211912
H         5.35360246232621    0.07971376288074    7.18359376429735
C         6.71771298391577    0.34513814062453    5.55472015589782
H         6.47846402319541   -0.60210156229510    5.09229642156731
C         7.65274726154153    1.17815176349291    4.96086497215658
H         8.12800462910616    0.85030155297592    4.04652921487277
C         6.13810650757339    3.25145676366567    3.17970454946047
C         5.65690227816109    2.22101905410240    2.38120392792491
H         6.22888683567465    1.87427190756097    1.53287357560763
C         4.43418329193764    1.63814262749418    2.66581299759521
H         4.06679862973908    0.83725756151504    2.04039465897299
C         3.68562537856242    2.07491156433979    3.74480029312099
H         2.73636616079959    1.61011855547318    3.96749822763935
C         4.15486186422399    3.11279535156443    4.53362898389863
H         3.57105301785419    3.46191596897239    5.37230722325853
C         5.37224400471749    3.70125867704228    4.25329083334740
H         5.74258543874411    4.50798309979225    4.86609913571330
C         8.30600946104027    3.40743567725113    1.29583381713471
C         8.67768271269728    2.06906677110277    1.17865331638462
H         8.61192094547877    1.42129744160834    2.04091210885929
C         9.13736881167536    1.56954361267904   -0.02431987467960
H         9.42097340539330    0.53019667219094   -0.10095322594256
C         9.24630181539967    2.40470858827575   -1.12484262984845
H         9.61161187037806    2.01740809671778   -2.06443247346443
C         8.89314384837763    3.73843914890032   -1.01368281778589
H         8.98305503184076    4.39477813689889   -1.86697615769497
C         8.42765315386644    4.24049646658826    0.18966965893774
H         8.16085368306489    5.28462825924945    0.26794544150087
C         7.33997995886617    5.76157871679325    2.56263007394783
C         6.10227779955071    6.07256866080720    2.00671071093817
H         5.38279489276447    5.28832068101473    1.81345122469526
C         5.79418955272117    7.38667205879914    1.70582065637107
H         4.83148075030240    7.62649092553661    1.27749008129446
C         6.71346312681001    8.39279972046697    1.95689689922171
H         6.46488907306127    9.41878940833627    1.72639252510216
C         7.94596386868419    8.08265098870939    2.50717595586633
H         8.66213023758260    8.86620577912372    2.70725131733222
C         8.26405941434077    6.77019988394273    2.80755094393421
H         9.21777351002350    6.53044344417998    3.25095188535197
P        10.73658444491223    4.03253490425597    6.49268280213768
F        10.69041801270776    5.23878619294848    4.14158196542098
C        10.52247348281476    2.40143891135850    3.88871736337252
C        11.16032574121268    2.77487719506461    2.71453801600429
H        10.94970804742638    3.73287285683683    2.25883833433358
C        12.09678590258401    1.94538239554423    2.11898321510891
H        12.58195461252987    2.25871493478950    1.20559361608579
C        12.41000811830152    0.72639855908938    2.69165853421563
H        13.14371960322522    0.07955641381415    2.23291377156440
C        11.77989863958289    0.34471098321158    3.86209049064358
H        12.01919097755428   -0.60264173382233    4.32426625200718
C        10.84483933708425    1.17754019569369    4.45616889964064
H        10.36975130715185    0.84950797151819    5.37053779194293
C        12.36041267472693    3.25132344306350    6.23672924220191
C        12.84076771994907    2.22024874730132    7.03500547103032
H        12.26823072366194    1.87336142806041    7.88289509001768
C        14.06328733909979    1.63677140078383    6.75079842316511
H        14.42988164776925    0.83540174867495    7.37607285347701
C        14.81267464082236    2.07353246305880    5.67237728531613
H        15.76179209794830    1.60828584248099    5.44997701485528
C        14.34438043857611    3.11203372536381    4.88380830623795
H        14.92884370564352    3.46122451788891    4.04560624503432
C        13.12712947323173    3.70108365442912    5.16374038674581
H        12.75764131861594    4.50822701487199    4.55095868418971
C        10.19245223838011    3.40707735051709    8.12065897307849
C         9.82022625578694    2.06887860642618    8.23796265992431
H         9.88593681447753    1.42086901525646    7.37587862056810
C         9.36000255204639    1.56973194341115    9.44089152948557
H         9.07596718462542    0.53050654202337    9.51761971606810
C         9.25102804790916    2.40509644919639   10.54125704585457
H         8.88515009154042    2.01813379710859   11.48076198068707
C         9.60478220258008    3.73865564013972   10.42998500042831
H         9.51484751788734    4.39522889844038   11.28308843567894
C        10.07084467578039    4.24029098252924    9.22669921188104
H        10.33813335053267    5.28428890906410    9.14839678289558
C        11.15760704116882    5.76170265068843    6.85403171400405
C        12.39489601907377    6.07332652424153    7.41048146495208
H        13.11469279317093    5.28941939144981    7.60399826493255
C        12.70205014434433    7.38760314817447    7.71162238323261
H        13.66439509556293    7.62795578976073    8.14045638256738
C        11.78235113035638    8.39324184363398    7.46014162530165
H        12.03019497917061    9.41936688351639    7.69080408506939
C        10.55027797480916    8.08242637560201    6.90930196072136
H         9.83367589188073    8.86549762775463    6.70888699275787
C        10.23308291406324    6.76981987742340    6.60879658675259
H         9.27965184209955    6.52966992066280    6.16510666322283

