56
CSD_code = MARVAC | q = 0 | S = 0 | Stoichiometry = C25H24N4O2Pd | MND = 4
Pd        8.79701405914834    9.21290622925673    8.06583038922390
O         8.65833106521820   13.11510200818134    9.28447364553544
O        12.30519424716436    7.75395493960493    6.56879951592838
N        10.29908869664088   10.32080426260829    7.89497452109936
N         7.98086882212858   10.98210573270184    8.76656204083957
N        10.07974189953124    7.87833217496948    7.12410862504800
N         7.20025030952526    8.17731997136221    8.09788898663938
C        10.21182185374403   11.58796162373131    8.29084154922826
C        11.28907082321634   12.45134562975680    8.13283834450916
C        12.44853637082202   11.96847897213717    7.54294859277494
C        12.50566382757552   10.64825266551919    7.11839409059227
C        11.39184103935381    9.83976623914739    7.30699324682091
C         8.86391106804560   11.98472985017603    8.85294997564267
C         6.62913446280541   11.24554789872877    9.20699573252553
C         6.38668687305026   10.64580800744324   10.60598287941275
C         4.92631575197975   10.46882780047893   10.88511755563381
C         4.37553591700106    9.19766970094177   10.98966729784910
C         3.01837305788124    9.02867855375580   11.20576079010332
C         2.19150492997581   10.13285970151612   11.31880790603452
C         2.73127769599647   11.40488287370691   11.22256282411545
C         4.08733049853338   11.57091917447773   11.00804250027029
C        11.31463730077482    8.37108625671092    6.94858678318731
C         9.94704476094939    6.44309363565513    7.03117422423215
C        10.31814024527421    5.77069183980545    8.37643612814038
C         9.49119191650389    6.34578122478954    9.48648912089020
C         8.32865394007725    5.71739674017390    9.91630695277728
C         7.55680086057729    6.26539188448844   10.92731379399326
C         7.92231391913512    7.46618489799324   11.51151622522751
C         9.06844715300551    8.12156611133070   11.08212865172571
C         9.85569384471395    7.56286263517116   10.07831875978785
C         6.16716123077998    7.67206040131728    8.11304520915871
C         4.88942587084304    7.02985537585495    8.13912573084850
H        11.18985765974099   13.47195742130878    8.46730385337265
H        13.30006689482848   12.61881156224782    7.40844687021881
H        13.38041612367735   10.22840198395004    6.64732706510572
H         6.46922853736370   12.32940359945719    9.22622160277956
H         5.92903552825941   10.79400364602292    8.49127012405743
H         6.89209770869297    9.67542297732813   10.63701726906815
H         6.84475466087773   11.30178203273079   11.34880528469796
H         5.02408176273601    8.33503623689563   10.91314044723524
H         2.60433357847309    8.03328319629876   11.29100099072379
H         1.13256922962528   10.00296680609706   11.48658417560392
H         2.09154035340575   12.27006513614183   11.31712255143449
H         4.50522672941808   12.56410361843241   10.93779874143070
H         8.91371447474286    6.19587064393816    6.76424431905823
H        10.62642066826586    6.06637768814201    6.25721015328459
H        10.15837806296882    4.69526742703457    8.29015048889034
H        11.37795867916932    5.95855715158048    8.55642648634451
H         8.03954943438645    4.77606636187113    9.46944907980071
H         6.67342127340825    5.74590508930712   11.27217893541299
H         7.32921180862210    7.88113383485592   12.31362369290679
H         9.38176665287926    9.03848919495578   11.56544003874276
H        10.82199565834978    8.00554016735551    9.84317677114071
H         4.15243198380985    7.70061534132224    8.58264167867183
H         4.58353589936167    6.77624126394177    7.12422529377011
H         4.95250232494935    6.11867260526875    8.73371149642117

