71
CSD_code = MARWEK | q = 0 | S = 0 | Stoichiometry = C26H36Cl2MoN2O4 | MND = 6
Mo        7.81547984946937    7.23620759717542   29.78272815272807
O         7.11043075863638    8.19107902739778   28.44689337501995
O         8.70161828538394    7.33328584492699   31.33747983464137
O         6.46402891444192    6.42574523868584   30.30044512382231
O         8.88541763652247    6.31552907679657   28.91341966954202
C         5.37513546025536    9.76165315994893   28.75644544505665
C         6.18755350587648    8.97609604070525   27.92134533521986
C         6.03490729207547    9.02108382318857   26.52082876781926
C         5.10695548931987    9.89551107447724   25.99160112238577
H         4.95924301768223    9.96076809319549   24.92629847106841
C         4.34586686827988   10.70470222505467   26.82113367613180
C         4.43994012459725   10.64608857139315   28.20848402504985
C         5.45236013297349    9.53162582711799   30.24804811476927
H         4.93638238714109    8.58675964535873   30.46223459398509
H         4.92910320836984   10.34071802295911   30.77792401884569
C        10.93209357828264    8.11968691696946   31.43171488952241
C         9.86388020019136    7.38312665831313   31.96805562154863
C        10.00889434148809    6.69242481202213   33.18845434497164
C        11.20804559410158    6.79596178999864   33.86382946493734
H        11.35804049195416    6.28258242659012   34.79916733303494
C        12.24406494151114    7.55806259868553   33.34669440306737
C        12.14647972706093    8.21095107587582   32.12238286433989
C        10.80641822291744    8.70058612630661   30.04152841487876
H        11.55552421436820    9.49570031021443   29.90759880771680
H        11.02784315724439    7.89451937426819   29.33039785528359
N         6.81098036114086    9.40230757117514   30.80181431902763
C         7.59903827427943   10.60306926014439   30.52365665209434
H         7.36163335762224   11.40458124458838   31.24356091412302
H         7.33112465021973   10.96301696101181   29.52522195273535
C         9.10247568132204   10.31946032782829   30.57965684392186
H         9.64870780166850   11.24688375698654   30.33480213955936
H         9.38288324873751   10.02621949561108   31.59628190057338
N         9.48602362374926    9.23707053902581   29.67309558032316
Cl        3.23026026659664   11.78916835538499   26.04947865102059
Cl       13.70167810634389    7.64106211929692   34.28683317626181
C         3.55274948480429   11.48669915579039   29.08055606026266
H         2.92593578019562   12.12985053180145   28.47089227514518
H         4.14220893867511   12.11884025046566   29.74396512819088
H         2.90538924275206   10.85512537074845   29.68689698041953
C         6.85556138914129    8.05129605121591   25.70498437747124
H         7.88004179721322    8.07429800979870   26.09954986164409
C         6.31386322975267    6.63284176209136   25.93462340258419
H         5.26569455719515    6.57809990528595   25.64638514202151
H         6.41162976238148    6.35249497085443   26.98812334491723
H         6.87892030729385    5.91957795814195   25.33949685762757
C         6.89193565189577    8.37957332910086   24.21571478262088
H         7.59241522596374    7.71677862188858   23.71323821256372
H         7.21210607403547    9.40594453412255   24.04954680695617
H         5.91307985343936    8.23696935342601   23.76420010232721
C         8.85679190676541    5.82241646485753   33.63055059071181
H         7.93292998165317    6.39435598609764   33.47200650952658
C         8.79304521198766    4.59029748819250   32.71617607732345
H         8.62153430664672    4.89173185890378   31.67703023244747
H         7.97414659345952    3.94376135205139   33.02226710946294
H         9.72410631874133    4.02966727763555   32.77515284189734
C         8.93210200214683    5.40219230338763   35.09529929059755
H         9.76213447253243    4.71937350760385   35.25972886374370
H         8.01543692533367    4.88837984667834   35.37491223051498
H         9.05199477191758    6.26714426664475   35.74416416506774
C        13.31349590484150    8.96402640099209   31.55243275105576
H        13.60398267085398    8.54511794915381   30.59048386533140
H        14.16506201672663    8.90236669040783   32.22268768941596
H        13.06910693985184   10.01701261440310   31.41339569960765
C         6.68287856824428    9.18541908313053   32.24010077214220
H         6.17133561722805    8.23810453039547   32.40963055113835
H         6.10905155675752    9.99747313869969   32.71361730406672
H         7.66379220316621    9.13480776895044   32.70976563914579
C         9.58080265484958    9.72089009887254   28.29874344259677
H         9.80805903573752    8.88122123192977   27.64268300041725
H        10.37389974175101   10.47871412002275   28.19936463996453
H         8.63956653225590   10.16234122758402   27.97599754404496

