68
CSD_code = MARWUA | q = 0 | S = 0 | Stoichiometry = C25H34Cl2MoN2O4 | MND = 6
Mo       11.92079534849028    5.10505002257403    3.45084069244173
O        10.17205716882697    4.57965558856732    3.51195715235527
O        13.67135320498661    4.51986551193485    3.58004984807371
O        11.98931328380275    5.77301533665760    1.94095164915464
O        11.90292812311840    6.18508730727466    4.69769307476753
C         9.45258367366710    3.19150219442832    1.71906502918602
C         9.18703409868815    4.01604737266839    2.82741607717976
C         7.85845388438368    4.24052473704600    3.24115709628265
C         6.83646135135711    3.60298026530289    2.56709690789211
H         5.81127890036099    3.74701385300718    2.86672014565293
C         7.11048307448226    2.77667574869290    1.48980068683105
C         8.40693100633550    2.56798791477156    1.02997846088747
C        10.87945671250637    3.04851724841613    1.23949005288295
H        10.96569991707234    2.17870050616462    0.57774102119035
H        11.14214582547168    3.94873356212421    0.67008112666005
C        14.19274156046499    4.17746028472967    5.88840190932328
C        14.52514683835244    4.62142703047579    4.59964613388808
C        15.79773957607215    5.17391086894152    4.34587595534499
C        16.71771279219811    5.23054720668638    5.37236155250249
H        17.69809583044963    5.64666200463685    5.20915701398069
C        16.39008553394098    4.76134862206081    6.63421358260339
C        15.13007967886450    4.25627645683313    6.92769777272390
C        12.79511965113070    3.70350891388041    6.23024601747150
H        12.85869630041467    2.87054984807141    6.94889680919029
H        12.27443836627817    4.53993448963479    6.71140271357611
Cl        5.75537127364777    2.01492166915057    0.71601343530978
Cl       17.61905568996770    4.85518509858657    7.85590983284736
N        11.84961154818417    2.95231738858186    2.33805072120368
H        12.78468157956940    2.93061492695516    1.92703942426972
C        11.67709715775897    1.77248482183671    3.18736236078414
H        10.60043639302408    1.67432667922373    3.38881463395279
C        12.41344880191520    2.02664290810074    4.50867775426377
H        12.23563270278676    1.18861454324557    5.20196862416441
H        13.49172290021697    2.08790610983805    4.31789205163847
N        11.98375613768393    3.29650861228479    5.08214181254619
H        11.01805496319875    3.20481964498182    5.39935772193603
C         7.63118954886480    5.16386850074844    4.41472575447210
H         8.44941167513573    5.89824680186979    4.40276380515025
C         7.73103792532764    4.36506414660093    5.71912191866316
H         6.97460772583356    3.58224020068458    5.74430994495605
H         7.58505855031875    5.02058420204204    6.57416773973486
H         8.71440557810974    3.90532033101090    5.80302741094981
C         6.30058141373267    5.90766858394126    4.34403830355344
H         6.17699952511839    6.37696734655396    3.37146506392963
H         6.27312042786705    6.68293180510139    5.10602382662293
H         5.46391068208388    5.23504107940560    4.51948394013281
C         8.66896745844490    1.71609507031896   -0.17855663847059
H         9.25690679717201    0.83606263674218    0.08227017508016
H         9.20669902012781    2.28294939088130   -0.93619765695169
H         7.73202260075468    1.37590780810661   -0.60819997696715
C        16.04012987909305    5.75069365786219    2.97175946921580
H        15.57788131945137    5.07041714047568    2.24465933441537
C        15.30717402617872    7.09627882348195    2.87879403628461
H        14.23335336525293    6.95967531457354    3.04877445102798
H        15.44703687080040    7.53009933693418    1.89150212425621
H        15.69696943395597    7.78628473213100    3.62453033996110
C        17.51693030534641    5.91483798473755    2.62387311043497
H        17.97278150731886    6.69638014390487    3.22654471876377
H        17.61648881070796    6.19842035385572    1.57866932806480
H        18.06023849879247    4.98559838180506    2.78151619222278
C        14.77021178728502    3.82811982259613    8.31985755938553
H        15.58591525884984    4.04170738672498    9.00341842226587
H        14.56812810912384    2.75755743571458    8.35952042827968
H        13.88388886866599    4.35833727951614    8.66328082698170
C        12.19084423529863    0.48759606163151    2.53369178318463
H        11.64555819286418    0.27112519026158    1.61900032524934
H        12.06292279660637   -0.35614504836551    3.20674833536144
H        13.24932695584820    0.58014279978963    2.29594874882834

